122
Energy =
H   204.8618877   51.6398759  191.4481766 
C   204.8018039   51.2666310  192.4827344 
C   203.6213728   50.3461611  192.6499493 
O   202.4120474   51.0198899  192.3242982 
C   203.6342850   49.1118330  191.7515874 
O   204.4298513   48.1309110  192.3451795 
C   202.1463196   48.7488700  191.6691785 
O   201.7401199   47.9313601  192.7284532 
C   201.4906451   50.1445554  191.7352764 
N   201.1220121   50.6756900  190.4381499 
C   201.9380781   51.2965534  189.5168110 
N   201.3097533   51.6222239  188.4191352 
C   200.0193768   51.1942680  188.6138972 
C   198.8863988   51.2045671  187.7372177 
O   198.7751125   51.6437852  186.6032597 
N   197.7823004   50.5858451  188.3601416 
C   197.7471448   50.0521484  189.6203623 
N   196.5816466   49.5207153  190.0291047 
N   198.7902295   50.0452079  190.4206260 
C   199.8826848   50.6008633  189.8699189 
P   205.1233250   46.9392310  191.4230163 
O   206.0964015   46.2664794  192.3460586 
O   205.4874750   47.4778276  190.0716309 
O   203.8315569   45.9507490  191.1566071 
C   203.3557145   45.1245841  192.1893114 
C   203.7205462   43.6752386  191.9445633 
O   203.2240471   43.2548702  190.6701667 
C   205.2119692   43.3627314  191.9150795 
O   205.5024099   42.0412937  192.3330706 
C   205.5683065   43.5062123  190.4326811 
O   206.6849970   42.7601329  190.0665012 
C   204.2698138   43.0452862  189.7510437 
N   204.0022455   43.6757795  188.4835307 
C   204.1544765   45.0025459  188.1053290 
N   203.7471013   45.2235409  186.8859003 
C   203.2836573   44.0116056  186.4320695 
C   202.5889428   43.6659103  185.2289950 
O   202.2513756   44.3746297  184.2886236 
N   202.2356990   42.3047381  185.2335768 
C   202.4266676   41.4238381  186.2612655 
N   201.9280418   40.1828691  186.0869662 
N   203.0530536   41.7434886  187.3730227 
C   203.4341526   43.0331020  187.4146362 
O   199.6134613   41.4844381  184.3775380 
O   196.9318524   41.7820282  182.8045789 
O   195.8007481   41.5284556  189.9030282 
C   199.4747611   45.0325122  191.7462425 
C   197.3630389   46.2291880  191.2843823 
C   200.3638223   46.1133079  188.9061950 
C   199.2806273   46.6517039  189.8103492 
C   198.5720387   45.5538085  190.6251096 
C   198.0842017   44.4620948  189.6341438 
C   199.1518872   43.8907912  188.6529097 
C   199.8353616   45.0750905  187.9385868 
C   197.2648599   43.3535605  190.2848272 
C   196.5555670   42.5076525  189.2390929 
C   197.5705772   41.9597559  188.2655878 
C   198.3755776   43.0403798  187.5803772 
C   200.2091570   42.9987685  189.3045481 
C   199.2841917   42.5193439  186.4748322 
C   198.6128085   42.1028604  185.1786303 
C   197.9823638   43.2764943  184.4302847 
I   201.2117439   47.7782251  187.7665456 
C   197.4615080   42.8376351  183.0731592 
N   197.7146830   43.8540846  182.1870976 
C   198.4743607   44.8887608  182.7134715 
C   198.8620862   44.4845116  184.1140285 
O   198.7712597   45.8910374  182.1121953 
C   197.7457514   40.6428447  188.1136845 
H   200.3575572   44.5041529  191.3722131 
H   198.9301701   44.3373704  192.4035813 
H   199.8421326   45.8719486  192.3570197 
H   196.6522985   46.5987116  190.5282145 
H   197.7015528   47.0899707  191.8827124 
H   196.8256188   45.5491359  191.9612291 
H   196.5003661   43.7721595  190.9546733 
H   197.8981880   42.6897462  190.8946206 
H   203.7474593   45.4312412  193.1730875 
H   202.2600991   45.2170778  192.2151374 
H   203.2339928   43.0698876  192.7294519 
H   204.7354134   52.1259735  193.1652476 
H   205.7246763   50.7126334  192.7080060 
H   203.5767302   49.9956220  193.7003661 
H   204.0113884   49.3622258  190.7447493 
H   201.8889037   48.2440436  190.7277508 
H   202.4008697   47.9807877  193.4313241 
H   200.5592325   50.0733767  192.3190417 
H   202.9854848   51.4991731  189.7362568 
H   196.9461569   50.5464465  187.7841599 
H   195.7559506   49.5112077  189.4483154 
H   196.5391744   49.1073745  190.9496558 
H   205.7979418   44.0542851  192.5337634 
H   204.8004414   41.4503968  192.0289956 
H   205.7615449   44.5637217  190.2046410 
H   206.7207606   42.0330546  190.7109410 
H   204.3441530   41.9692050  189.5197843 
H   204.5552833   45.7612988  188.7822594 
H   201.5840003   42.0312492  184.4947416 
H   201.2315510   40.0291061  185.3670871 
H   201.9340016   39.5622448  186.8852994 
H   199.1763811   41.0061072  183.6606748 
H   195.2845609   41.0504896  189.2425410 
H   201.2358183   45.7478740  189.4670720 
H   198.5254911   47.1536074  189.1819863 
H   199.6719793   47.4180079  190.4943118 
H   197.3842822   45.0103190  188.9726914 
H   200.6634661   44.7266663  187.3065476 
H   199.0976497   45.5587190  187.2747011 
H   195.8859934   43.1837125  188.6660210 
H   197.6487448   43.7459067  187.1344072 
H   200.8177906   42.5044388  188.5354926 
H   199.7608668   42.2050464  189.9182190 
H   200.9223970   43.5473863  189.9265924 
H   200.0272959   43.2850190  186.2248523 
H   199.8494111   41.6517011  186.8385476 
H   197.8114702   41.3733867  185.3839184 
H   197.0897309   43.6006452  184.9931794 
H   197.4100882   43.8337877  181.2171382 
H   198.7481067   45.3340121  184.7999599 
H   199.9387235   44.2339680  184.0868250 
H   198.4873008   40.2204477  187.4325519 
H   197.1474042   39.9389287  188.6968117 
