    7
scf done:  -959.789639
 C    -0.029223    -0.304334    -0.044139
Cl    -2.261745    -2.713822    -1.012699
Cl    -3.564174    -4.120544    -1.577242
 H    -1.013963     0.140625    -0.150390
 H    -0.061190    -1.086463     0.708351
 H     0.678304     0.459656     0.262535
 H     0.286077    -0.724543    -0.994403
