7
E: -547026.506590317 kcal/mol
  C    0.050957671   0.055164191  -0.032925885
  H   -1.024445640   0.072269161   0.117546172
  H    0.508348983  -0.636912672   0.667869998
  H    0.450713107   1.050360674   0.135265329
  H    0.274236028  -0.252091989  -1.050343280
 Br   -1.257927165  -3.099837332  -0.601605941
 Br   -2.118597985  -5.183987035  -0.974263392
