    7
scf done:  -630.215727
 C    -0.032603    -0.245329    -0.035933
 I    -2.470315    -2.687736    -1.235348
 I    -4.245194    -4.464741    -2.108170
 H    -0.980553     0.254481    -0.212468
 H    -0.160128    -1.020226     0.714308
 H     0.692193     0.480189     0.320357
 H     0.328323    -0.685520    -0.960895
