9
E: -385183.181256767 kcal/mol
  C    0.179810349  -0.077197552  -0.118024640
 Cl    1.722679479   0.399031247   0.628076100
  H    0.130360699  -1.159076002  -0.155096513
  H   -0.630477191   0.314338739   0.485507040
  H    0.134959164   0.335748179  -1.118887999
  O    5.021132775   0.895454957   1.419893847
  C    5.318087448   0.256913234   0.434834399
  H    6.367823685   0.073102256   0.158041136
  H    4.553712983  -0.170074169  -0.230506037
