9
E: -571810.121615694 kcal/mol
  C    0.228087368  -0.006027308  -0.103512024
 Cl    1.808884452   0.632806687   0.291464994
  F    0.331959317  -1.250132504  -0.555496397
  F   -0.551167778  -0.013339450   0.969446208
  F   -0.350921815   0.733335757  -1.039651530
  O    4.791042041   1.212574728   0.806274100
  C    5.338872324   0.181990043   0.481989475
  H    6.429824457   0.059818048   0.547276489
  H    4.771509024  -0.682785113   0.106046017
