18
E: -2034314.15544267 kcal/mol
  C   -0.189833176  -0.645396435   0.069807761
  C    1.121636324  -0.354065576   0.439096514
  C    1.486520953   0.962572632   0.712107225
  C    0.549329390   1.989209324   0.617868956
  C   -0.757627135   1.681862630   0.246856908
  C   -1.138190460   0.370551816  -0.028582325
 Br   -2.038462778   3.070459841   0.115165429
  H    1.852935245  -1.146434699   0.514119204
  H    0.825048723   3.012176989   0.829385472
  H    2.502259769   1.196433556   1.000317333
  H   -2.157140187   0.151608161  -0.313181471
  H   -0.480820487  -1.664983631  -0.142918416
  S   -4.215936931   5.802988251  -0.906198001
  H   -4.882284885   4.869493340  -1.590870210
  C   -2.886831979   6.043996927  -2.118626387
  H   -2.226070752   6.795760513  -1.696058687
  H   -2.323448273   5.128239773  -2.267635371
  H   -3.277018363   6.410851588  -3.062523930
