9
E: -984684.457059711 kcal/mol
  O   -0.778073626   0.205937567  -0.003744167
  H    0.204621770   0.306150037  -0.005250247
  C   -1.064673043  -1.099865265  -0.000037626
 Cl   -2.818149715  -1.288073131   0.002340120
 Cl   -0.388554792  -1.946140752  -1.447422763
 Cl   -0.385461107  -1.938612521   1.450299192
  O    1.935769523   0.377160572  -0.007214859
  H    2.306016151  -0.082891430  -0.765460465
  H    2.307022838  -0.079711239   0.752502467
