8
E: -135454.555038382 kcal/mol
  F    0.324738231  -0.000096172   0.367513243
  H    0.106356599  -0.000015606   1.274535595
  O   -0.172804018   0.000148837   2.977023926
  H   -1.016537578  -0.000036604   3.432992751
  C    0.876426903   0.000022101   3.940751135
  H    1.807816896   0.000063118   3.385025861
  H    0.843957277   0.889172090   4.568576086
  H    0.843926687  -0.889257764   4.568390406
