8
E: -333705.476573081 kcal/mol
 Br    0.430759046  -0.000115215  -0.107945607
  H    0.017750410  -0.000013811   1.259967353
  O   -0.255412248   0.000181682   3.130143486
  H   -1.047072883  -0.000041463   3.673011187
  C    0.882135070   0.000024453   3.986478486
  H    1.755447044   0.000097379   3.342012500
  H    0.915157391   0.888914246   4.615698861
  H    0.915117168  -0.889047272   4.615442733
