122
Energy =
H   205.3857551   51.0010703  192.4483640 
C   205.0211962   50.9911675  193.4859804 
C   203.6035891   50.4907591  193.5481198 
O   202.7447298   51.3150746  192.7656568 
C   203.3812177   49.0928382  192.9947160 
O   203.7400074   48.1183056  193.9289638 
C   201.8901137   49.1091165  192.6663428 
O   201.0892554   48.8959668  193.7932304 
C   201.7424167   50.5539853  192.1582154 
N   201.8859619   50.6504268  190.7157837 
C   202.9928101   50.9818140  189.9643073 
N   202.7660613   50.9342480  188.6786819 
C   201.4528386   50.5481494  188.5665956 
C   200.6195707   50.3342937  187.4186017 
O   200.8792530   50.4374999  186.2328883 
N   199.3142228   49.9739977  187.8217644 
C   198.8638146   49.8288139  189.1045278 
N   197.5642090   49.5131418  189.2699714 
N   199.6329770   50.0096463  190.1529936 
C   200.8878105   50.3703523  189.8302931 
P   204.9093342   47.0416134  193.4268053 
O   205.1441594   46.1227213  194.5895447 
O   205.9965266   47.7984919  192.7260550 
O   204.0689419   46.2557182  192.2419346 
C   203.2797313   45.1376135  192.5662352 
C   203.7096749   43.9707751  191.7118223 
O   203.3805129   44.2293971  190.3454390 
C   205.2260609   43.7629583  191.7658196 
O   205.6420953   42.4128961  191.7880746 
C   205.7043873   44.4224079  190.4683977 
O   206.9348891   43.9350960  190.0475823 
C   204.5248157   44.0797831  189.5477421 
N   204.4125795   44.8669663  188.3525663 
C   204.9520986   46.1051300  188.0578128 
N   204.7038820   46.4905828  186.8372290 
C   203.9528867   45.4785718  186.2897301 
C   203.4200131   45.3136949  184.9675683 
O   203.5059722   46.0374916  183.9897995 
N   202.7214600   44.0898155  184.8753934 
C   202.6047658   43.1416354  185.8539487 
N   201.9012668   42.0297491  185.5471039 
N   203.1079298   43.2930951  187.0565897 
C   203.7585563   44.4575134  187.2197665 
O   198.2319223   40.4653652  184.4947727 
O   194.9510906   41.1896606  183.7852474 
O   195.7163150   41.4527801  190.3349740 
C   199.6670267   44.9442111  191.2573454 
C   197.5506592   46.2002723  190.9480297 
C   200.2069354   45.7057836  188.2044602 
C   199.3162778   46.3783530  189.2235724 
C   198.6484440   45.4121738  190.2152878 
C   197.9896658   44.2519899  189.4160938 
C   198.8572705   43.5561794  188.3212951 
C   199.4581246   44.6463300  187.4221226 
C   197.2774640   43.2327671  190.2972248 
C   196.3666271   42.3428931  189.4671212 
C   197.1845812   41.6797775  188.3854084 
C   197.8732615   42.6691563  187.4731031 
C   199.9782538   42.6742899  188.8829795 
C   198.5152457   42.0254996  186.2478287 
C   197.5372724   41.4533063  185.2289377 
C   196.9522931   42.5085247  184.2794082 
F   200.6558042   46.6703511  187.3033357 
C   195.8707135   41.8816453  183.4131093 
N   196.1300840   42.2210118  182.1064347 
C   197.2761266   42.9732978  181.9264408 
C   197.9331831   43.1199963  183.2801502 
O   197.6531723   43.4035596  180.8631604 
C   197.3108557   40.3503609  188.3220228 
H   200.5876879   44.5592926  190.8044618 
H   199.2510708   44.1597264  191.9069685 
H   199.9504443   45.7891708  191.9034946 
H   196.7270849   46.4682344  190.2642116 
H   197.9713106   47.1333176  191.3606732 
H   197.1204882   45.6310199  191.7850008 
H   196.6632223   43.7269976  191.0622367 
H   197.9912535   42.5897909  190.8360146 
H   203.4152685   44.8632844  193.6259398 
H   202.2170626   45.3658930  192.3831311 
H   203.1810581   43.0613971  192.0496032 
H   205.0987125   52.0044236  193.9074717 
H   205.6656056   50.3116375  194.0608191 
H   203.2504680   50.4987186  194.5992497 
H   203.9592059   48.9777450  192.0632567 
H   201.6199355   48.3850707  191.8806719 
H   201.6423177   48.9550594  194.5841222 
H   200.7405991   50.9341729  192.4144319 
H   203.9262492   51.2717790  190.4469431 
H   198.6681127   49.8202721  187.0537370 
H   196.9899307   49.2073001  188.4964546 
H   197.2590124   49.2932652  190.2080202 
H   205.6686878   44.2409479  192.6509461 
H   205.0394344   41.8727564  191.2630854 
H   205.7518789   45.5112908  190.6318808 
H   207.0140619   43.0645375  190.4761466 
H   204.6279597   43.0312094  189.2058156 
H   205.5262499   46.6641512  188.7950851 
H   202.3189915   43.9047803  183.9588570 
H   201.7461787   41.7643818  184.5845981 
H   201.9251299   41.2805425  186.2276036 
H   197.5835651   39.8662662  184.1026977 
H   195.0571590   40.9594940  189.8311846 
H   201.1109158   45.2846502  188.6755782 
H   198.5270358   46.9042949  188.6595583 
H   199.8833729   47.1506211  189.7692649 
H   197.1938772   44.7565093  188.8360942 
H   200.1358434   44.2125283  186.6711948 
H   198.6409359   45.1500964  186.8720064 
H   195.6280815   43.0030310  188.9617288 
H   197.0931119   43.3706195  187.1171615 
H   200.4775000   42.1343013  188.0660617 
H   199.5979541   41.9283737  189.5954819 
H   200.7636768   43.2582158  189.3769098 
H   199.1781305   42.7448123  185.7468788 
H   199.1620979   41.1907792  186.5517043 
H   196.6780563   41.0047742  185.7580297 
H   196.4480230   43.2900718  184.8744379 
H   195.5185963   41.9575643  181.3373450 
H   198.1740023   44.1769439  183.4559300 
H   198.8811979   42.5591120  183.2487498 
H   197.9125504   39.8443467  187.5628269 
H   196.8220113   39.7194858  189.0673168 
