122
Energy =
H   204.9781416   51.5008240  191.2548111 
C   204.5667226   51.4260147  192.2733801 
C   203.3635269   50.5092693  192.2929561 
O   202.3562877   51.0123634  191.3979990 
C   203.6150734   49.0850242  191.7946498 
O   204.1210838   48.2786638  192.8485876 
C   202.2078808   48.6307177  191.3660516 
O   201.5052514   48.1450099  192.4968416 
C   201.5580967   49.9499597  190.9071858 
N   201.4680181   50.0725474  189.4603352 
C   202.4784454   50.3665341  188.5566175 
N   202.0903800   50.2664838  187.3072483 
C   200.7694652   49.8668957  187.3779957 
C   199.8404044   49.5063230  186.3440370 
O   199.9563677   49.5184074  185.1227698 
N   198.6127095   49.0707859  186.9233087 
C   198.3122926   49.0103320  188.2625588 
N   197.0760335   48.5774766  188.6050805 
N   199.1684088   49.3565628  189.2053870 
C   200.3633552   49.7446027  188.7136605 
P   205.0388519   46.9355154  192.4307629 
O   205.4031594   46.2733242  193.7308200 
O   206.0251901   47.3264617  191.3575555 
O   203.8871563   46.0459094  191.6349907 
C   203.0828854   45.0990140  192.3187422 
C   203.3621666   43.7159377  191.7581708 
O   203.0565705   43.6624289  190.3496579 
C   204.8219739   43.2754148  191.8550922 
O   204.9543455   41.8539965  191.9137174 
C   205.4422979   43.7798272  190.5355640 
O   206.5356356   42.9950970  190.1308089 
C   204.2446032   43.7103171  189.5578581 
N   204.2146493   44.7845608  188.5854531 
C   204.6480070   46.1071189  188.6863324 
N   204.4718062   46.7808192  187.5746483 
C   203.8889713   45.8875180  186.6961136 
C   203.3806975   46.0794233  185.3651197 
O   203.3643255   47.0815155  184.6591855 
N   202.8139396   44.8650494  184.8768682 
C   202.7884761   43.6644046  185.5377701 
N   202.2201172   42.6085996  184.8794778 
N   203.2231226   43.5034424  186.7722067 
C   203.7257690   44.6408805  187.3049460 
O   198.4865285   41.5121326  184.4876063 
O   196.3178225   43.6243765  183.1780730 
O   195.1131216   41.5331177  190.3655145 
C   199.4157505   44.2570973  192.1871311 
C   197.5087252   45.8252892  191.8976300 
C   200.3340963   45.3727722  189.3300415 
C   199.4224817   46.0240802  190.3511618 
C   198.5694108   45.0015469  191.1401475 
C   197.8593652   44.0592892  190.1201536 
C   198.7761718   43.3809015  189.0518111 
C   199.5751222   44.4969768  188.3502735 
C   196.9061368   43.0493662  190.7658609 
C   196.0075783   42.4142218  189.7079032 
C   196.8626805   41.7562851  188.6431556 
C   197.8256048   42.7261811  187.9814532 
C   199.7576503   42.3273084  189.6029172 
C   198.5734237   42.1346264  186.7767693 
C   197.8741887   42.3771546  185.4413682 
C   198.0068535   43.8435290  184.9542254 
Cl  201.1671315   46.6715919  188.3437013 
C   197.4278705   43.9558209  183.5458668 
N   198.4209641   44.4573990  182.7166393 
C   199.6396740   44.6423261  183.3433823 
C   199.4594343   44.3061960  184.8030796 
O   200.6695658   44.9754696  182.7783981 
C   196.7553057   40.4450824  188.3849027 
H   200.2729725   43.7335489  191.7469327 
H   198.8104892   43.5134605  192.7286499 
H   199.8015217   44.9760572  192.9271991 
H   196.8134126   46.3133787  191.1944364 
H   198.0021722   46.6120562  192.4902926 
H   196.9187421   45.2050823  192.5895949 
H   196.2642406   43.5355380  191.5145503 
H   197.4581112   42.2455129  191.2790059 
H   203.3007479   45.1098524  193.3991050 
H   202.0280834   45.3607678  192.1581619 
H   202.7102815   42.9880718  192.2683228 
H   204.2993342   52.4336822  192.6245689 
H   205.3422236   51.0169214  192.9382564 
H   202.9460102   50.4405185  193.3146760 
H   204.3139122   49.0794283  190.9431745 
H   202.2201137   47.8875320  190.5554301 
H   202.2025705   47.8265984  193.1038249 
H   200.5266942   50.0000340  191.2877339 
H   203.4671538   50.6681145  188.8972853 
H   197.9058730   48.7991850  186.2423889 
H   196.3978237   48.2629644  187.9232606 
H   196.8501275   48.5036783  189.5895763 
H   205.3327197   43.6851088  192.7362750 
H   204.2675196   41.4576491  191.3499748 
H   205.7826479   44.8172785  190.6492875 
H   206.3742555   42.1228599  190.5451787 
H   204.2911199   42.7857966  188.9631017 
H   205.0892643   46.5018089  189.6036550 
H   202.3062375   44.9514845  183.9857187 
H   202.2482638   42.6020103  183.8642159 
H   202.3565912   41.7030114  185.3185369 
H   197.8629228   41.3823706  183.7551622 
H   194.4829653   41.2046633  189.7039362 
H   201.1689929   44.8305566  189.7905563 
H   198.7410373   46.7005673  189.8121275 
H   200.0016441   46.6444369  191.0522031 
H   197.2247509   44.7467067  189.5251563 
H   200.2942939   44.0728953  187.6358772 
H   198.8771005   45.1401657  187.7855835 
H   195.4401608   43.2322780  189.2166337 
H   197.2081628   43.5711592  187.6184338 
H   200.1075666   41.6779921  188.7859091 
H   199.3023664   41.6847668  190.3696959 
H   200.6514667   42.8130285  190.0175748 
H   199.5925124   42.5395732  186.7119885 
H   198.7012197   41.0493453  186.8806406 
H   196.7986024   42.1454766  185.5359262 
H   197.4164325   44.5063504  185.6065244 
H   198.2875255   44.5870804  181.7140846 
H   199.7378455   45.1689946  185.4246385 
H   200.1709868   43.4941053  185.0192694 
H   197.3560226   39.9369274  187.6284237 
H   196.0502593   39.8330355  188.9526921 
