122
Energy =
H   205.1815004   51.5398956  191.0847420 
C   204.9196206   51.4530201  192.1507191 
C   203.6874347   50.5931996  192.3278278 
O   202.5820143   51.1742540  191.6133535 
C   203.7906346   49.1739517  191.7653122 
O   204.3835527   48.3194409  192.7312266 
C   202.3151235   48.8044010  191.5191585 
O   201.7440812   48.3157024  192.7190172 
C   201.6829834   50.1691712  191.1867705 
N   201.4361807   50.3578924  189.7627908 
C   202.3320998   50.7561877  188.7839074 
N   201.8121792   50.7375672  187.5778225 
C   200.5169337   50.2929947  187.7593740 
C   199.4820384   50.0018004  186.8071761 
O   199.4666203   50.1183609  185.5849765 
N   198.3325236   49.4980285  187.4771879 
C   198.1861707   49.3115069  188.8298231 
N   197.0149758   48.7679608  189.2588818 
N   199.1370987   49.5926375  189.6998245 
C   200.2648071   50.0509112  189.1165089 
P   205.1792156   46.9426596  192.1894481 
O   205.6169507   46.2263141  193.4384907 
O   206.0902360   47.3065005  191.0441954 
O   203.9120100   46.1425099  191.4806421 
C   203.0776753   45.2878887  192.2472499 
C   203.2791100   43.8527227  191.7957986 
O   202.9518092   43.7156532  190.3978070 
C   204.7123152   43.3363455  191.9157263 
O   204.7633580   41.9197412  192.0982027 
C   205.3393193   43.6854203  190.5512446 
O   206.3836135   42.8106622  190.2074166 
C   204.1256567   43.5953223  189.5962230 
N   204.1503421   44.5634126  188.5194490 
C   204.6942119   45.8481453  188.4765404 
N   204.5608613   46.4105797  187.2992936 
C   203.8899753   45.4821785  186.5257252 
C   203.3874673   45.5711308  185.1835998 
O   203.4561449   46.4882209  184.3696944 
N   202.7093122   44.3706035  184.8307365 
C   202.5612796   43.2605279  185.6235073 
N   201.9567128   42.1751712  185.0676866 
N   202.9973310   43.1968299  186.8701223 
C   203.6259564   44.3266443  187.2664832 
O   199.0141285   41.6023149  184.3944503 
O   196.2476339   43.3996659  183.0499385 
O   195.2047752   41.4276358  190.1274259 
C   199.3819095   44.2695266  192.1008671 
C   197.4209160   45.7685394  191.7853209 
C   200.3313777   45.4419306  189.2952500 
C   199.3612980   46.0560405  190.2842389 
C   198.5296305   44.9938790  191.0450193 
C   197.8782954   44.0421349  189.9930317 
C   198.8482203   43.3985904  188.9500808 
C   199.6449431   44.5420615  188.2838889 
C   196.9289118   43.0026187  190.5978508 
C   196.0898930   42.3432205  189.5051846 
C   197.0010944   41.7210046  188.4660880 
C   197.9499458   42.7272732  187.8409749 
C   199.8126619   42.3421840  189.5181166 
C   198.7710395   42.1636720  186.6740580 
C   198.1281695   42.2727744  185.2951055 
C   197.9300608   43.7407754  184.8185844 
Br  201.2328096   46.8885268  188.2746167 
C   197.3715718   43.6980552  183.3994608 
N   198.4298619   43.9693810  182.5392197 
C   199.6166080   44.2427244  183.1956942 
C   199.2660324   44.4722552  184.6486200 
O   200.7136743   44.2881834  182.6615374 
C   196.9517516   40.4082298  188.1984257 
H   200.2842166   43.8143910  191.6755632 
H   198.8061850   43.4733168  192.5980007 
H   199.7007726   44.9844707  192.8762904 
H   196.7210649   46.2320115  191.0710358 
H   197.8698877   46.5716937  192.3916802 
H   196.8460577   45.1204769  192.4644214 
H   196.2426159   43.4699566  191.3186076 
H   197.4804659   42.2140937  191.1346552 
H   203.3095310   45.3690724  193.3217863 
H   202.0349331   45.5912954  192.0783340 
H   202.5952627   43.2032897  192.3666536 
H   204.7584450   52.4607700  192.5613482 
H   205.7624120   50.9875318  192.6834405 
H   203.4254302   50.5103191  193.3987457 
H   204.3708175   49.1525228  190.8289304 
H   202.1819794   48.0883025  190.6941677 
H   202.5030299   47.9790821  193.2359322 
H   200.7066415   50.2506366  191.6881084 
H   203.3422179   51.0689626  189.0407636 
H   197.5640749   49.2471134  186.8575029 
H   196.1892677   48.8256799  188.6719202 
H   196.8505837   48.8131578  190.2593792 
H   205.2596751   43.7943118  192.7495963 
H   204.0516682   41.5144474  191.5731509 
H   205.7363521   44.7087449  190.5673536 
H   206.1835438   41.9890682  190.7008377 
H   204.1038813   42.6124406  189.1012876 
H   205.1596347   46.3101969  189.3503128 
H   202.2426733   44.3872129  183.9133177 
H   201.3869009   42.2723876  184.2331863 
H   201.6700773   41.4438881  185.7090174 
H   198.5044493   41.2541999  183.6458679 
H   194.6053421   41.0862434  189.4442185 
H   201.1721039   44.9309426  189.7792993 
H   198.6624974   46.7027764  189.7306054 
H   199.8914550   46.7000257  191.0032939 
H   197.2454275   44.7193740  189.3850858 
H   200.4099695   44.1391720  187.6060960 
H   198.9507355   45.1559822  187.6834866 
H   195.5116955   43.1446590  188.9994691 
H   197.3181354   43.5531194  187.4627143 
H   200.2765605   41.7816315  188.6924946 
H   199.2950541   41.6186503  190.1643446 
H   200.6406779   42.7925149  190.0782579 
H   199.7492277   42.6583721  186.6239765 
H   198.9955161   41.0997445  186.8301348 
H   197.1400788   41.7818257  185.2976054 
H   197.2166048   44.2526115  185.4774064 
H   198.3652662   43.8580733  181.5277758 
H   199.1558358   45.5584629  184.7971351 
H   200.0683761   44.1320713  185.3093927 
H   197.5977166   39.9282582  187.4606972 
H   196.2517130   39.7661558  188.7384816 
