122
Energy =
H     5.4191892    0.9041366    0.8598199 
C     4.9006308    1.0946110    1.8121837 
C     3.6209973    0.2918595    1.8779260 
O     2.7907720    0.6023432    0.7526328 
C     3.7956654   -1.2256212    1.7723542 
O     4.0886149   -1.7817468    3.0450529 
C     2.4156566   -1.7064808    1.2625958 
O     1.6161381   -2.1284826    2.3500548 
C     1.8088350   -0.4163007    0.6477576 
N     1.3923177   -0.5071137   -0.7317758 
C     2.1707138   -0.6691241   -1.8725374 
N     1.4538681   -0.7300800   -2.9680081 
C     0.1434143   -0.6310108   -2.5447047 
C    -1.0875066   -0.7196355   -3.2765407 
O    -1.2958362   -0.8722317   -4.4775952 
N    -2.1947195   -0.6193143   -2.3841921 
C    -2.1394594   -0.4346699   -1.0234141 
N    -3.3187401   -0.3049271   -0.3639017 
N    -1.0011820   -0.3536395   -0.3602138 
C     0.0840768   -0.4780814   -1.1544921 
P     5.1295382   -3.1030952    3.1184842 
O     5.1916148   -3.4864668    4.5685414 
O     6.3219726   -2.8242652    2.2377366 
O     4.2457920   -4.2083813    2.2578181 
C     3.2830138   -5.0686822    2.8382852 
C     3.2945583   -6.3612860    2.0424083 
O     3.0256672   -6.0977595    0.6484153 
C     4.6272782   -7.1060777    2.0297778 
O     4.4585992   -8.5008329    1.7661372 
C     5.3821348   -6.4709021    0.8468955 
O     6.3470802   -7.3337609    0.3022262 
C     4.2225907   -6.1542873   -0.1273753 
N     4.4083869   -4.9518724   -0.9130502 
C     5.0296984   -3.7491345   -0.5848183 
N     4.9709137   -2.8713259   -1.5603538 
C     4.2860488   -3.5055293   -2.5799204 
C     3.9214649   -3.0425840   -3.8881316 
O     4.1576327   -1.9749408   -4.4440984 
N     3.1975257   -4.0557931   -4.5766517 
C     2.9052419   -5.3096418   -4.1075074 
N     2.1722771   -6.1265173   -4.9212326 
N     3.2674418   -5.7352290   -2.9128261 
C     3.9264648   -4.7988072   -2.1968550 
O    -1.1810453   -9.0823206   -5.4536566 
O    -4.1478245   -8.1322476   -6.5941536 
O    -4.4941575   -8.4353777    0.3232402 
C    -0.4795605   -5.1181329    1.8027220 
C    -2.4715342   -3.7484470    1.2087313 
C     0.5165563   -4.4531788   -1.1067220 
C    -0.4965948   -3.6978507   -0.2784325 
C    -1.3393676   -4.6184850    0.6277002 
C    -1.9511974   -5.7481582   -0.2559799 
C    -0.9646743   -6.5144791   -1.2009400 
C    -0.1510099   -5.4787714   -2.0009548 
C    -2.8533348   -6.7172356    0.5145123 
C    -3.6752750   -7.5726260   -0.4482001 
C    -2.7541903   -8.2874392   -1.4164675 
C    -1.8701775   -7.3328131   -2.1967299 
C     0.0004606   -7.4836476   -0.4921660 
C    -1.1015048   -7.9947466   -3.3464780 
C    -1.9616266   -8.2726293   -4.5769149 
C    -2.3958488   -6.9862429   -5.3014201 
F     1.1893632   -3.5324072   -1.9359175 
C    -3.2519327   -7.3115872   -6.5214967 
N    -2.8222303   -6.5038910   -7.5575555 
C    -1.6989597   -5.7381197   -7.2589859 
C    -1.2581329   -6.1250529   -5.8608607 
O    -1.1814307   -4.9469514   -8.0200712 
C    -2.7315218   -9.6252275   -1.5017739 
H     0.3938575   -5.6900719    1.4665116 
H    -1.0610474   -5.7523554    2.4900419 
H    -0.1056845   -4.2414852    2.3542778 
H    -3.1577039   -3.4092228    0.4151151 
H    -2.0408444   -2.8537120    1.6858076 
H    -3.0586127   -4.2867301    1.9688656 
H    -3.5492785   -6.1724384    1.1689977 
H    -2.2609636   -7.3893564    1.1557211 
H     3.5214360   -5.2658388    3.8963601 
H     2.2831327   -4.6132434    2.7723972 
H     2.4942018   -7.0179421    2.4196400 
H     4.6974245    2.1722142    1.8995628 
H     5.5593201    0.7902621    2.6391621 
H     3.0726980    0.5053974    2.8163393 
H     4.5884565   -1.4647468    1.0487360 
H     2.5013543   -2.5081078    0.5127971 
H     2.2511587   -2.2400643    3.0884690 
H     0.9003447   -0.1744232    1.2236338 
H     3.2549697   -0.7524517   -1.8125361 
H    -3.1043887   -0.6772369   -2.8390339 
H    -4.1896588   -0.5760348   -0.8058594 
H    -3.2819754   -0.3535543    0.6485604 
H     5.1789723   -7.0284302    2.9753979 
H     3.7202506   -8.6078642    1.1416445 
H     5.8739742   -5.5448295    1.1681673 
H     6.0047791   -8.2314373    0.4885140 
H     4.1159143   -6.9640083   -0.8653745 
H     5.5057760   -3.5803214    0.3830463 
H     2.8767376   -3.7851592   -5.5047632 
H     2.1927101   -5.9544049   -5.9218447 
H     2.1923001   -7.1091694   -4.6642030 
H    -1.7849146   -9.5063382   -6.0847240 
H    -5.0877637   -8.9015622   -0.2874366 
H     1.2929935   -4.9142843   -0.4793301 
H    -1.1639135   -3.1640046   -0.9761665 
H     0.0020958   -2.9416375    0.3427807 
H    -2.6102255   -5.1991043   -0.9579211 
H     0.6274883   -5.9720304   -2.5977619 
H    -0.8164755   -4.9362899   -2.6962702 
H    -4.3084639   -6.8846833   -1.0469982 
H    -2.5434465   -6.5735215   -2.6388035 
H     0.4844159   -8.1297387   -1.2412174 
H    -0.5206653   -8.1386990    0.2205375 
H     0.8084222   -6.9600520    0.0339223 
H    -0.2595877   -7.3585344   -3.6548811 
H    -0.6628716   -8.9532189   -3.0333668 
H    -2.8785534   -8.8097293   -4.2785019 
H    -3.0412263   -6.3933394   -4.6312562 
H    -3.2696623   -6.4917590   -8.4734398 
H    -1.0099020   -5.2340087   -5.2701892 
H    -0.3411633   -6.7263670   -5.9673588 
H    -2.0716564  -10.1606804   -2.1877196 
H    -3.3785463  -10.2276913   -0.8593347 
