212
	Energy:     774.4477634
O          2.70742       -1.60452      -21.81682
C          2.49416       -1.68517      -23.19369
C          1.44768       -2.75354      -23.53093
O          1.84803       -4.04159      -23.08966
C          0.07912       -2.46501      -22.91235
O         -0.61137       -1.46107      -23.63109
C         -0.54856       -3.82556      -23.05506
O         -1.03054       -3.99490      -24.37638
C          0.65814       -4.74953      -22.76009
N          0.71016       -5.22992      -21.35240
C          0.38366       -6.54771      -21.05077
O          0.02803       -7.31761      -21.92860
N          0.44715       -6.99861      -19.75642
C          0.84086       -6.16833      -18.74502
O          0.89884       -6.58304      -17.60270
C          1.18056       -4.85406      -19.02467
C          1.10674       -4.39819      -20.33772
P         -1.47321       -0.41676      -22.52348
O         -2.17956        0.67514      -23.37180
O         -0.37423        0.42718      -21.47788
O         -2.69807       -1.25492      -21.60254
C         -3.66417       -1.76671      -22.48778
C         -4.61236       -2.70574      -21.73153
O         -3.92552       -3.81681      -21.17570
C         -5.33996       -2.01003      -20.58349
O         -6.43466       -1.23975      -21.04202
C         -5.77782       -3.21852      -19.80944
O         -6.80451       -3.87685      -20.51278
C         -4.47998       -4.04733      -19.88284
N         -3.51149       -3.69027      -18.80821
C         -3.84539       -3.88477      -17.47410
O         -4.93003       -4.34803      -17.16613
N         -2.95611       -3.58051      -16.49188
C         -1.72331       -3.09426      -16.77810
N         -0.82041       -2.79570      -15.73097
C         -1.35573       -2.89658      -18.10419
C         -2.26360       -3.20704      -19.11130
P         -6.36597        0.37458      -20.36807
O         -7.53642        1.18313      -20.98920
O         -4.91150        1.19215      -20.84752
O         -6.56616        0.41272      -18.63123
C         -7.77726       -0.21431      -18.28104
C         -7.70928       -0.70925      -16.82829
O         -6.69462       -1.68560      -16.64386
C         -7.42507        0.40632      -15.82115
O         -8.51388        1.25714      -15.55906
C         -6.97593       -0.41980      -14.64800
O         -8.07258       -1.11652      -14.10632
C         -6.05275       -1.40033      -15.40157
N         -4.69401       -0.82814      -15.61674
C         -3.88526       -0.52014      -14.53239
O         -4.26817       -0.72685      -13.39395
N         -2.64606        0.00218      -14.72758
C         -2.16086        0.22975      -15.97305
N         -0.86318        0.76514      -16.13908
C         -2.93970       -0.08466      -17.08011
C         -4.20592       -0.62165      -16.88085
O          5.75520        0.77819       -7.62237
C          5.32823        0.80273       -6.29444
C          3.81048        0.62522       -6.19870
O          3.11788        1.66143       -6.87178
C          3.29891       -0.69193       -6.78352
O          3.54738       -1.79598       -5.93480
C          1.83374       -0.35084       -6.87049
O          1.28157       -0.29763       -5.57678
C          1.96029        1.06942       -7.45155
N          2.09905        1.01416       -8.91486
C          3.16548        1.36847       -9.68035
N          2.93192        1.16616      -11.00588
C          1.67479        0.68634      -11.04408
C          0.90158        0.30911      -12.12694
O          1.33634        0.36866      -13.26351
N         -0.38330       -0.13090      -11.88112
C         -0.87451       -0.18605      -10.59471
N         -2.20167       -0.61041      -10.36008
N         -0.08304        0.17677       -9.53719
C          1.17647        0.60206       -9.79448
P          4.62643       -2.94065       -6.71329
O          5.39797       -3.96487       -5.54090
O          5.78574       -2.14842       -7.37588
O          3.83833       -3.84596       -7.99230
C          3.32387       -5.06265       -7.49564
C          3.89820       -6.29095       -8.23905
O          3.66117       -6.18136       -9.63913
C          5.41161       -6.49601       -8.03216
O          5.73662       -7.85078       -8.23802
C          5.93058       -5.68399       -9.18974
O          7.28194       -5.91769       -9.50456
C          4.93234       -6.11857      -10.26654
N          4.88899       -5.23865      -11.44036
C          5.51687       -4.05228      -11.66755
N          5.22272       -3.54771      -12.89740
C          4.39841       -4.46554      -13.43606
C          3.79870       -4.49854      -14.68227
O          3.96455       -3.59882      -15.48737
N          3.01573       -5.59168      -14.99303
C          2.84040       -6.61447      -14.08565
N          2.05645       -7.74081      -14.42647
N          3.43415       -6.55194      -12.85309
C          4.19953       -5.47315      -12.56331
O         -1.76262       -9.75350      -15.64136
O         -5.18173       -9.10153      -16.23701
O         -4.43551       -8.53696       -9.71190
C         -0.35675       -5.06193       -8.78135
C         -2.39391       -3.72227       -9.16854
C          0.32553       -4.46483      -11.85218
C         -0.61377       -3.69501      -10.91707
C         -1.33773       -4.60518       -9.88763
C         -2.05543       -5.77933      -10.67703
C         -1.16353       -6.57850      -11.73531
C         -0.46929       -5.51851      -12.64498
C         -2.85013       -6.74991       -9.75951
C         -3.75884       -7.66588      -10.58401
C         -2.92665       -8.39012      -11.62200
C         -2.14344       -7.48737      -12.59453
C         -0.07635       -7.50457      -11.10678
C         -1.47135       -8.25173      -13.78879
C         -2.47505       -8.88792      -14.79142
C         -3.22356       -7.82529      -15.63742
F          0.89829       -3.57165      -12.74173
C         -4.24115       -8.40314      -16.58241
N         -4.05976       -8.01757      -17.84505
C         -2.98422       -7.23704      -17.93333
C         -2.28171       -7.05506      -16.62375
O         -2.59650       -6.76682      -18.99102
C         -2.86881       -9.74264      -11.63661
H          2.15843       -0.69500      -23.56849
H          3.45481       -1.94099      -23.68809
H          1.36004       -2.79378      -24.64036
H          0.21300       -2.23642      -21.83610
H         -1.41154       -4.01247      -22.38276
H         -0.29821       -4.26963      -24.98667
H          0.55630       -5.62617      -23.43478
H          0.19350       -7.99028      -19.54009
H          1.50440       -4.18793      -18.23353
H          1.39608       -3.38229      -20.52903
H         -3.19139       -2.36191      -23.30073
H         -4.26227       -0.93604      -22.92371
H         -5.35779       -3.11133      -22.45435
H         -4.59603       -1.45324      -19.96528
H         -6.15122       -2.96863      -18.79588
H         -7.10277       -4.62986      -19.93853
H         -4.72677       -5.12520      -19.76429
H          0.12085       -2.42944      -15.93687
H         -1.09985       -2.93828      -14.75007
H         -0.37684       -2.50975      -18.35623
H         -1.94909       -3.06373      -20.13189
H         -7.98869       -1.10938      -18.90899
H         -8.61157        0.51355      -18.38227
H         -8.67812       -1.20169      -16.58215
H         -6.56140        1.02128      -16.16308
H         -9.30528        0.69482      -15.35485
H         -6.50891        0.18921      -13.84388
H         -7.72660       -1.62882      -13.32947
H         -5.93616       -2.33656      -14.81224
H         -0.47891        0.92898      -17.08128
H         -0.28757        0.98977      -15.31587
H         -2.56845        0.07346      -18.08532
H         -4.78253       -0.87877      -17.74778
H          5.61242        1.77784       -5.84534
H          5.84162       -0.00246       -5.72847
H          3.53437        0.68751       -5.12018
H          3.66997       -0.81961       -7.83013
H          1.24726       -1.07480       -7.48103
H          0.31262       -0.11434       -5.69107
H          1.05727        1.67331       -7.21492
H          4.09428        1.75989       -9.29279
H         -0.99121       -0.41671      -12.68039
H         -2.80663       -0.89268      -11.14358
H         -2.57762       -0.62925       -9.40137
H          3.46497       -5.21750       -6.40305
H          2.22862       -5.03956       -7.63978
H          3.35881       -7.17092       -7.82410
H          5.80852       -6.18262       -7.04101
H          5.38616       -8.35151       -7.45573
H          5.80801       -4.60936       -8.96786
H          7.35892       -6.82045       -9.90877
H          5.19363       -7.14688      -10.60847
H          6.17263       -3.55592      -10.96608
H          2.56158       -5.64506      -15.93077
H          1.60699       -7.80682      -15.35004
H          1.94002       -8.51336      -13.75563
H         -2.39880      -10.44733      -15.95711
H         -5.26854       -8.81804      -10.17368
H          0.53109       -5.58164       -9.14259
H         -0.86641       -5.70443       -8.03370
H          0.03818       -4.17474       -8.23973
H         -3.15019       -3.33771       -9.88605
H         -1.90632       -2.84920       -8.68395
H         -2.92321       -4.26318       -8.35979
H          1.15008       -4.93193      -11.27939
H         -1.37280       -3.19571      -11.56158
H         -0.04628       -2.89601      -10.39157
H         -2.81855       -5.24593      -11.29176
H          0.22274       -5.99785      -13.36079
H         -1.24415       -4.98237      -13.23728
H         -3.51584       -6.20051       -9.06764
H         -2.15198       -7.35442       -9.14396
H         -4.50126       -7.02281      -11.11417
H         -2.87587       -6.79513      -13.05529
H          0.47755       -8.04366      -11.89701
H         -0.51313       -8.26714      -10.43260
H          0.72028       -6.99068      -10.56715
H         -0.82744       -7.57816      -14.38154
H         -0.80474       -9.04142      -13.38914
H         -3.22259       -9.47848      -14.22003
H         -3.79709       -7.11965      -15.00231
H         -4.66582       -8.28058      -18.63675
H         -2.15595       -5.99998      -16.31916
H         -1.29024       -7.53782      -16.73488
H         -2.26289      -10.29360      -12.34110
H         -3.42430      -10.33843      -10.92178
