212
	Energy:     771.6176159
O          2.75337       -1.59621      -21.93667
C          2.48766       -1.68195      -23.30443
C          1.40395       -2.72699      -23.58991
O          1.79066       -4.01538      -23.13887
C          0.06728       -2.39703      -22.92548
O         -0.62541       -1.38145      -23.62430
C         -0.59756       -3.74562      -23.02237
O         -1.14687       -3.92063      -24.31618
C          0.59697       -4.69759      -22.77289
N          0.68471       -5.18922      -21.36981
C          0.40145       -6.51915      -21.07573
O          0.06147       -7.29298      -21.95625
N          0.49276       -6.97873      -19.78566
C          0.86886       -6.14482      -18.77013
O          0.95129       -6.56709      -17.63117
C          1.16356       -4.81780      -19.04216
C          1.06632       -4.35464      -20.35126
P         -1.51808       -0.38897      -22.49217
O         -2.26874        0.69262      -23.31536
O         -0.44249        0.47483      -21.43846
O         -2.70538       -1.28661      -21.57668
C         -3.65300       -1.82064      -22.46822
C         -4.59458       -2.77030      -21.71889
O         -3.90015       -3.85474      -21.12181
C         -5.36861       -2.07378      -20.60515
O         -6.45176       -1.31843      -21.11223
C         -5.82195       -3.28175      -19.83887
O         -6.81207       -3.95917      -20.57589
C         -4.51024       -4.09224      -19.85422
N         -3.60174       -3.71602      -18.73476
C         -3.99937       -3.91508      -17.41859
O         -5.08791       -4.40185      -17.16507
N         -3.17005       -3.58761      -16.39305
C         -1.93545       -3.07448      -16.61646
N         -1.09924       -2.74661      -15.52358
C         -1.50107       -2.87715      -17.92341
C         -2.35015       -3.20793      -18.97596
P         -6.40987        0.30381      -20.45805
O         -7.62752        1.07010      -21.04116
O         -4.99675        1.15912      -20.99155
O         -6.54888        0.33909      -18.71639
C         -7.73597       -0.31402      -18.33577
C         -7.65613       -0.72341      -16.85970
O         -6.59061       -1.62829      -16.61129
C         -7.44460        0.46197      -15.91804
O         -8.57735        1.27332      -15.72555
C         -6.98363       -0.27169      -14.69087
O         -8.05941       -0.98438      -14.12861
C         -6.00067       -1.25208      -15.36676
N         -4.65865       -0.63795      -15.56877
C         -3.90152       -0.24484      -14.47403
O         -4.31869       -0.40688      -13.34035
N         -2.67588        0.31325      -14.65192
C         -2.15258        0.49467      -15.88906
N         -0.87077        1.07325      -16.03474
C         -2.87863        0.09611      -17.00618
C         -4.13377       -0.47612      -16.82540
O          5.78703        0.63965       -7.69480
C          5.35992        0.71336       -6.36864
C          3.83634        0.59620       -6.27217
O          3.18514        1.64257       -6.97153
C          3.27557       -0.71560       -6.82537
O          3.46973       -1.80550       -5.94462
C          1.82660       -0.31815       -6.93241
O          1.26938       -0.20733       -5.64433
C          2.01285        1.07949       -7.55018
N          2.16577        0.98399       -9.01046
C          3.24652        1.30218       -9.77187
N          3.02407        1.07327      -11.09509
C          1.75991        0.61250      -11.13666
C          0.99286        0.22077      -12.21947
O          1.44008        0.24795      -13.35263
N         -0.30003       -0.19739      -11.97753
C         -0.80533       -0.21648      -10.69544
N         -2.13872       -0.62262      -10.46489
N         -0.02135        0.16313       -9.63822
C          1.24644        0.56568       -9.89097
P          4.53329       -3.00176       -6.66487
O          5.27140       -3.98838       -5.43961
O          5.71658       -2.25879       -7.34184
O          3.74229       -3.93799       -7.92152
C          3.31425       -5.18774       -7.42395
C          3.98563       -6.37523       -8.15279
O          3.76071       -6.28210       -9.55580
C          5.50548       -6.48153       -7.92571
O          5.91865       -7.81242       -8.12639
C          5.98680       -5.63745       -9.07496
O          7.35369       -5.78294       -9.37477
C          5.03057       -6.12173      -10.16912
N          4.93712       -5.21879      -11.32403
C          5.51185       -4.00067      -11.52532
N          5.18149       -3.47486      -12.73650
C          4.38815       -4.40992      -13.29100
C          3.76838       -4.42759      -14.52767
O          3.88440       -3.49677      -15.30568
N          3.02036       -5.53892      -14.85916
C          2.89947       -6.59462      -13.98106
N          2.14608       -7.73539      -14.34248
N          3.51318       -6.54808      -12.75674
C          4.24339       -5.45050      -12.44600
O         -1.72590       -9.81446      -15.67252
O         -5.11393       -9.25798      -16.33427
O         -4.51460       -8.49506       -9.76373
C         -0.35989       -5.09650       -8.82875
C         -2.36633       -3.72230       -9.25824
C          0.36433       -4.56075      -11.89922
C         -0.56894       -3.75746      -10.98730
C         -1.32140       -4.63746       -9.95222
C         -2.05597       -5.80831      -10.73278
C         -1.16853       -6.64319      -11.76617
C         -0.44258       -5.61111      -12.68307
C         -2.88611       -6.74633       -9.81305
C         -3.80364       -7.65408      -10.63813
C         -2.97290       -8.41438      -11.65179
C         -2.15457       -7.54593      -12.62536
C         -0.10938       -7.58166      -11.10859
C         -1.47597       -8.34034      -13.79626
C         -2.46202       -8.97543      -14.81569
C         -3.22576       -7.91751      -15.65383
F          0.96260       -3.69334      -12.79729
C         -4.19412       -8.51415      -16.63848
N         -3.99124       -8.09836      -17.88812
C         -2.94701       -7.27267      -17.93024
C         -2.29275       -7.08357      -16.59683
O         -2.55011       -6.76485      -18.96692
C         -2.94612       -9.76750      -11.64472
H          2.16373       -0.68716      -23.67736
H          3.42237       -1.96785      -23.83135
H          1.27586       -2.78168      -24.69478
H          0.25553       -2.14899      -21.86384
H         -1.42951       -3.90341      -22.30580
H         -0.44370       -4.18273      -24.96473
H          0.45394       -5.56505      -23.45171
H          0.27329       -7.98003      -19.57626
H          1.47248       -4.14752      -18.24881
H          1.32451       -3.32975      -20.53426
H         -3.16070       -2.41022      -23.27159
H         -4.26140       -1.00594      -22.91998
H         -5.31001       -3.20322      -22.45633
H         -4.65340       -1.50412      -19.96315
H         -6.23707       -3.02892      -18.84155
H         -7.12106       -4.71278      -20.00827
H         -4.74462       -5.17388      -19.74446
H         -0.15783       -2.35731      -15.67976
H         -1.43008       -2.88735      -14.55829
H         -0.51757       -2.47230      -18.12533
H         -1.98878       -3.05834      -19.98103
H         -7.90438       -1.24956      -18.91468
H         -8.60095        0.36994      -18.47869
H         -8.60008       -1.25360      -16.59533
H         -6.60407        1.09559      -16.28320
H         -9.35075        0.68508      -15.52505
H         -6.56330        0.40644      -13.91685
H         -7.70967       -1.42489      -13.31055
H         -5.86623       -2.15100      -14.72538
H         -0.45798        1.20820      -16.96936
H         -0.33719        1.36364      -15.20306
H         -2.47596        0.21920      -18.00408
H         -4.67169       -0.79458      -17.70033
H          5.68096        1.68755       -5.94327
H          5.84184       -0.09600       -5.78142
H          3.56061        0.69517       -5.19635
H          3.64552       -0.88953       -7.86569
H          1.21478       -1.03452       -7.52635
H          0.31103        0.01935       -5.76960
H          1.12920        1.72039       -7.33915
H          4.17704        1.68873       -9.38295
H         -0.90271       -0.49525      -12.77688
H         -2.73687       -0.92113      -11.24750
H         -2.52429       -0.61652       -9.50978
H          3.44001       -5.32094       -6.32735
H          2.22190       -5.24857       -7.58856
H          3.50275       -7.28991       -7.74314
H          5.86859       -6.14135       -6.93007
H          5.63913       -8.32196       -7.32141
H          5.79352       -4.57557       -8.84629
H          7.49625       -6.68861       -9.75386
H          5.36195       -7.12400      -10.52650
H          6.15492       -3.49582      -10.81816
H          2.54821       -5.58024      -15.78965
H          1.67834       -7.78496      -15.25852
H          2.06227       -8.52905      -13.69164
H         -2.33287      -10.54225      -15.96889
H         -5.35109       -8.75650      -10.23085
H          0.52381       -5.63542       -9.17183
H         -0.88955       -5.71943       -8.07842
H          0.04738       -4.21006       -8.29492
H         -3.10718       -3.33419       -9.98983
H         -1.86580       -2.85142       -8.78289
H         -2.91446       -4.23986       -8.44681
H          1.17342       -5.03529      -11.31057
H         -1.31088       -3.25362      -11.64802
H          0.00858       -2.96087      -10.46887
H         -2.79875       -5.26789      -11.36611
H          0.24746       -6.11395      -13.38237
H         -1.19940       -5.07003      -13.29357
H         -3.54933       -6.17062       -9.14031
H         -2.21137       -7.35674       -9.17757
H         -4.52207       -7.00201      -11.19013
H         -2.86402       -6.84558      -13.10911
H          0.44528       -8.14437      -11.88217
H         -0.57189       -8.32427      -10.42902
H          0.68993       -7.07600      -10.56566
H         -0.81336       -7.68237      -14.38437
H         -0.82786       -9.13570      -13.37727
H         -3.20592       -9.58580      -14.26002
H         -3.84014       -7.25147      -15.01405
H         -4.56225       -8.37109      -18.70227
H         -2.23731       -6.02583      -16.27593
H         -1.27345       -7.51162      -16.68361
H         -2.34106      -10.34254      -12.33032
H         -3.52655      -10.33887      -10.92954
