122
Energy =
H   205.0493385   51.4564252  191.4199887 
C   204.8676309   51.1437496  192.4617132 
C   203.6002027   50.3349593  192.5590792 
O   202.4948572   51.0852184  192.0841936 
C   203.5966732   49.0498687  191.7349000 
O   204.1710051   48.0267375  192.4935190 
C   202.0960269   48.8122816  191.4904820 
O   201.5575007   48.0578100  192.5416359 
C   201.5334094   50.2458127  191.5116164 
N   201.2188059   50.7630602  190.1946742 
C   202.0587952   51.4119315  189.3135859 
N   201.4819804   51.7075806  188.1821891 
C   200.2061145   51.2232336  188.3030300 
C   199.1103965   51.2112284  187.3724884 
O   198.9975309   51.6567458  186.2516165 
N   197.9975704   50.5322167  187.9587837 
C   197.9337889   49.9902942  189.2100085 
N   196.7641214   49.3971759  189.5764091 
N   198.9240652   50.0302296  190.0564846 
C   200.0245317   50.6299462  189.5545145 
P   204.9650487   46.7608675  191.7289295 
O   205.7663832   46.1000847  192.8019257 
O   205.4536744   47.2257318  190.3952250 
O   203.6514972   45.7915891  191.3804078 
C   203.2376784   44.8439181  192.3201673 
C   203.7099252   43.4493879  191.9523996 
O   203.2456781   43.0862678  190.6516703 
C   205.2188266   43.2408224  191.9058130 
O   205.5694074   41.8929249  192.1992729 
C   205.5726197   43.5303135  190.4419195 
O   206.7229276   42.8635188  190.0304577 
C   204.3043718   43.0437741  189.7195055 
N   203.9710276   43.7639453  188.5203441 
C   204.0060311   45.1303759  188.2548663 
N   203.5021660   45.4195266  187.0874765 
C   203.1142789   44.2195832  186.5471840 
C   202.3833648   43.9173264  185.3513205 
O   201.8922025   44.6498114  184.5070294 
N   202.1814125   42.5204785  185.2407657 
C   202.4619502   41.5873527  186.1950271 
N   202.0305784   40.3164748  185.9322039 
N   203.0934307   41.8630231  187.3040514 
C   203.3937601   43.1748659  187.4301294 
O   199.5915207   41.5006963  184.4401634 
O   197.2706432   41.6903717  182.7506332 
O   195.9146662   41.4112990  189.9389984 
C   199.4058742   44.9868989  191.8828037 
C   197.2838485   46.1626559  191.4089187 
C   200.3079336   46.1947423  189.0510460 
C   199.2182682   46.6588141  189.9882571 
C   198.5192315   45.5269121  190.7566959 
C   198.0721821   44.4446092  189.7358549 
C   199.1620357   43.9430584  188.7362568 
C   199.7919384   45.1710586  188.0572680 
C   197.3060015   43.2862191  190.3656408 
C   196.6297658   42.4354378  189.3031713 
C   197.6682611   41.9579742  188.3193110 
C   198.4099586   43.0901892  187.6478016 
C   200.2610310   43.0782059  189.3583386 
C   199.3232987   42.6376940  186.5162027 
C   198.6265170   42.1614621  185.2555430 
C   197.9452074   43.2892237  184.4757684 
Cl  200.9207001   47.6175522  188.1273316 
C   197.5687643   42.8186783  183.0802179 
N   197.6626841   43.9024493  182.2507728 
C   198.2383742   45.0348624  182.8491246 
C   198.6896550   44.6026393  184.2232569 
O   198.3441101   46.0967001  182.3044599 
C   197.9263741   40.6550521  188.1655558 
H   200.2497103   44.3995405  191.5083230 
H   198.8332089   44.3376379  192.5634462 
H   199.8329282   45.8167490  192.4660606 
H   196.5827630   46.5394546  190.6452687 
H   197.5957894   47.0093367  192.0414891 
H   196.7372195   45.4580132  192.0531204 
H   196.5278240   43.6505482  191.0516370 
H   197.9720139   42.6353080  190.9528790 
H   203.6168444   45.0832298  193.3289988 
H   202.1361666   44.8535603  192.3434731 
H   203.2722945   42.7448010  192.6842327 
H   204.8186731   52.0419585  193.0946603 
H   205.7140542   50.5227973  192.7895846 
H   203.4246672   50.0409730  193.6124022 
H   204.1349334   49.1704410  190.7800826 
H   201.9008179   48.3338897  190.5180546 
H   202.3350220   47.6942140  192.9998263 
H   200.5916540   50.2421702  192.0851449 
H   203.0831179   51.6501494  189.5943203 
H   197.2020341   50.4742124  187.3328930 
H   196.0231247   49.2260550  188.9167593 
H   196.7691681   48.8900895  190.4493123 
H   205.7615697   43.9016916  192.5947716 
H   204.8997383   41.3224324  191.8024042 
H   205.7123318   44.6110728  190.2895051 
H   206.8101634   42.1285682  190.6576213 
H   204.4554106   42.0023389  189.3864520 
H   204.4215936   45.8523270  188.9676811 
H   201.5370343   42.2574221  184.4968708 
H   201.2011302   40.2519065  185.3482791 
H   202.0610238   39.7028485  186.7356059 
H   199.0950918   41.0969465  183.7126314 
H   195.4868208   40.8872482  189.2533553 
H   201.1848558   45.8178331  189.5978185 
H   198.4639883   47.1784115  189.3732897 
H   199.6106559   47.4025957  190.6963003 
H   197.3472495   44.9795935  189.0883341 
H   200.6231527   44.8904937  187.3960541 
H   199.0338347   45.6711823  187.4273884 
H   195.9341195   43.1009372  188.7445761 
H   197.6461053   43.7751514  187.2290210 
H   200.8982798   42.6450742  188.5760459 
H   199.8582250   42.2397255  189.9432038 
H   200.9491445   43.6376521  189.9984318 
H   199.9966570   43.4574468  186.2429222 
H   199.9621547   41.8177072  186.8678174 
H   197.8406356   41.4333423  185.5215961 
H   196.9850250   43.5075122  184.9785053 
H   197.4100636   43.8748325  181.2685292 
H   198.5062299   45.3959331  184.9590430 
H   199.7910564   44.4741079  184.1768251 
H   198.6947475   40.2843584  187.4842372 
H   197.3878403   39.9152314  188.7624164 
