122
Energy =
H   205.0053751   51.4575996  191.5275909 
C   204.8679415   51.0846079  192.5500047 
C   203.6115036   50.2590466  192.6523128 
O   202.4795472   51.0284634  192.2823151 
C   203.5830286   49.0263501  191.7501577 
O   204.1688184   47.9609309  192.4410044 
C   202.0748449   48.8076502  191.5247516 
O   201.5664971   47.9903002  192.5409550 
C   201.5121529   50.2352310  191.6588026 
N   201.1906889   50.8603833  190.3898405 
C   202.0200122   51.6127919  189.5842097 
N   201.4305006   52.0429650  188.5036754 
C   200.1561687   51.5462425  188.5804441 
C   199.0541391   51.6418984  187.6627803 
O   198.9319253   52.2204658  186.6049362 
N   197.9517620   50.8866047  188.1664391 
C   197.9036877   50.1847531  189.3357621 
N   196.7378308   49.5471144  189.6334797 
N   198.9008186   50.1252511  190.1750234 
C   199.9898809   50.8001851  189.7500099 
P   204.9796378   46.7456227  191.6073506 
O   205.8223810   46.0747202  192.6409397 
O   205.4204976   47.2672705  190.2796582 
O   203.6816940   45.7541089  191.2607034 
C   203.2497181   44.8499237  192.2352646 
C   203.6928020   43.4308368  191.9295028 
O   203.2465042   43.0224163  190.6365668 
C   205.1973342   43.1864386  191.9159948 
O   205.5074678   41.8325353  192.2260502 
C   205.5801019   43.4471285  190.4541473 
O   206.7285603   42.7593016  190.0727562 
C   204.3173703   42.9659419  189.7175827 
N   204.0059056   43.6715272  188.5039303 
C   204.0332985   45.0340611  188.2204284 
N   203.5402337   45.3031704  187.0439820 
C   203.1534154   44.0954426  186.5212491 
C   202.4092191   43.7789365  185.3377915 
O   201.9206158   44.5011412  184.4831315 
N   202.1891932   42.3825398  185.2562993 
C   202.4629684   41.4658312  186.2287439 
N   201.9948905   40.1995006  186.0051879 
N   203.1168326   41.7547952  187.3218087 
C   203.4332095   43.0649914  187.4202067 
O   199.5682619   41.3898924  184.4428947 
O   197.2603158   41.5588939  182.7528493 
O   195.9234713   41.4697149  189.9871292 
C   199.4562789   45.1209060  191.7632615 
C   197.3323163   46.2707278  191.2642551 
C   200.3125528   46.1995925  188.8578197 
C   199.2401999   46.7091676  189.7904288 
C   198.5584218   45.6078181  190.6237630 
C   198.0960976   44.4819577  189.6592047 
C   199.1801055   43.9299225  188.6815495 
C   199.7933896   45.1239386  187.9254752 
C   197.3227210   43.3551469  190.3353597 
C   196.6424750   42.4634248  189.3094383 
C   197.6806311   41.9420776  188.3477302 
C   198.4127731   43.0491363  187.6264761 
C   200.2829269   43.0884289  189.3252343 
C   199.3142461   42.5533186  186.5040929 
C   198.6077806   42.0601310  185.2561198 
C   197.9224271   43.1774445  184.4646587 
I   201.0343595   47.8695266  187.6503153 
C   197.5490715   42.6926994  183.0727074 
N   197.6350647   43.7696970  182.2343462 
C   198.2064564   44.9099805  182.8224687 
C   198.6611652   44.4914665  184.1996729 
O   198.3077135   45.9668979  182.2672425 
C   197.9446335   40.6349425  188.2543627 
H   200.3055836   44.5307499  191.4070957 
H   198.8954570   44.4894058  192.4702064 
H   199.8789847   45.9731527  192.3162661 
H   196.6128770   46.6026585  190.4969586 
H   197.6535827   47.1484177  191.8487421 
H   196.8026814   45.5994522  191.9563066 
H   196.5455245   43.7508285  191.0048241 
H   197.9834759   42.7251745  190.9506331 
H   203.6353642   45.1169220  193.2346696 
H   202.1492870   44.8894416  192.2641911 
H   203.2244187   42.7650657  192.6781478 
H   204.8391883   51.9431004  193.2369761 
H   205.7316017   50.4545688  192.8081019 
H   203.4839591   49.8938788  193.6892323 
H   204.1021992   49.1966938  190.7927987 
H   201.8563163   48.3980163  190.5246344 
H   202.3504328   47.5092307  192.8639109 
H   200.5759713   50.1877579  192.2392491 
H   203.0464937   51.8172177  189.8815272 
H   197.1551083   50.8958077  187.5398148 
H   196.0361707   49.3955405  188.9269519 
H   196.7814800   48.8934602  190.4020673 
H   205.7470395   43.8433360  192.6032516 
H   204.8271139   41.2778875  191.8240483 
H   205.7328041   44.5238737  190.2902576 
H   206.8035405   42.0452504  190.7256905 
H   204.4630470   41.9196770  189.4007425 
H   204.4244239   45.7727066  188.9291718 
H   201.5330969   42.1153333  184.5244287 
H   201.1288315   40.1639397  185.4724031 
H   202.0079477   39.6285098  186.8403865 
H   199.0668873   40.9768585  183.7237073 
H   195.4916323   40.9208554  189.3235341 
H   201.2185538   45.8800714  189.3926031 
H   198.4648749   47.1968465  189.1740543 
H   199.6332410   47.4880349  190.4594115 
H   197.3729194   44.9911023  188.9888762 
H   200.6135509   44.8049318  187.2683528 
H   199.0178055   45.5705070  187.2769020 
H   195.9499861   43.1085967  188.7236528 
H   197.6446542   43.7225610  187.1968551 
H   200.8965673   42.6050511  188.5543538 
H   199.8877570   42.2868946  189.9647442 
H   200.9923675   43.6713139  189.9195256 
H   200.0043331   43.3512211  186.2084268 
H   199.9404789   41.7317192  186.8739434 
H   197.8249173   41.3342043  185.5367331 
H   196.9593889   43.3984741  184.9604564 
H   197.3849549   43.7311169  181.2521261 
H   198.4804581   45.2918326  184.9282965 
H   199.7623790   44.3640380  184.1490745 
H   198.7128174   40.2342133  187.5903979 
H   197.4100297   39.9216111  188.8855583 
