125
Energy =
H   104.8165281   51.5215778   37.9983573 
C   104.7950645   51.3298333   39.0821925 
C   103.6415367   50.4310356   39.4413020 
O   102.4107670   51.0258979   39.0428197 
C   103.6426358   49.0700538   38.7530106 
O   104.4421201   48.1688022   39.4687080 
C   102.1603663   48.6822296   38.8003867 
O   101.8540921   48.1148909   40.0430737 
C   101.4686343   50.0494908   38.6887240 
N   100.9726932   50.3425883   37.3612914 
C   101.7045187   50.6851352   36.2429027 
N   100.9641696   50.8357142   35.1784434 
C    99.6836045   50.5773448   35.6016588 
C    98.4457264   50.5425101   34.8791891 
O    98.2245905   50.7364867   33.6947225 
N    97.3824310   50.2200131   35.7487711 
C    97.4680729   49.9885215   37.0955859 
N    96.3146253   49.7704091   37.7546448 
N    98.6096559   49.9978295   37.7474436 
C    99.6654229   50.2797167   36.9652301 
P   105.1879628   46.9086063   38.6736762 
O   106.0806484   46.2869228   39.7034275 
O   105.6427527   47.3631518   37.3188010 
O   103.8957430   45.9284342   38.3774313 
C   103.4118284   45.0506894   39.3644560 
C   103.7885025   43.6155295   39.0542191 
O   103.2987303   43.2436872   37.7654922 
C   105.2846343   43.3211311   39.0212644 
O   105.5914428   41.9932319   39.4024729 
C   105.6436689   43.5121414   37.5435026 
O   106.7657321   42.7838637   37.1614485 
C   104.3493718   43.0607522   36.8473091 
N   104.0765434   43.7362163   35.6057391 
C   104.2180908   45.0769935   35.2862652 
N   103.7820431   45.3507619   34.0862857 
C   103.3189255   44.1566875   33.5853150 
C   102.6171192   43.8558281   32.3735842 
O   102.2532804   44.6018373   31.4732228 
N   102.2921494   42.4893007   32.3191341 
C   102.5060568   41.5644726   33.3027069 
N   102.0448004   40.3161801   33.0580564 
N   103.1264077   41.8462526   34.4264949 
C   103.4923859   43.1373932   34.5207083 
O    99.7182737   41.4810514   31.4551897 
O    97.0827457   41.6670570   29.8328812 
O    95.7471452   41.6961142   36.9125895 
C    99.4412534   45.1727448   38.7435960 
C    97.3748457   46.4048686   38.1929233 
C   100.4627207   46.1773473   35.8826402 
C    99.3548444   46.7307470   36.7639144 
C    98.5842695   45.6867510   37.5822134 
C    98.0954456   44.5775297   36.6097886 
C    99.1775929   43.9519913   35.6786727 
C    99.9059723   45.0980382   34.9616304 
C    97.2320329   43.5098341   37.2729392 
C    96.5374705   42.6396820   36.2370285 
C    97.5679769   42.0420282   35.3109622 
C    98.4079359   43.0859557   34.6141723 
C   100.1931318   43.0599726   36.3993165 
C    99.3306282   42.5182432   33.5438909 
C    98.6875373   42.0688143   32.2447748 
C    98.0201405   43.2108908   31.4814029 
C   101.1178975   47.2829652   35.0671577 
C    97.5542725   42.7471446   30.1125591 
N    97.7804474   43.7736787   29.2308120 
C    98.4781761   44.8429978   29.7729841 
C    98.8487847   44.4592236   31.1842581 
O    98.7437042   45.8570933   29.1769364 
C    97.7245790   40.7181663   35.2070836 
H   100.3785771   44.7147804   38.4092983 
H    98.8998522   44.4242053   39.3427521 
H    99.7079462   46.0099436   39.4085394 
H    96.6794564   46.7534246   37.4122717 
H    97.7191718   47.2892702   38.7512560 
H    96.8154782   45.7661220   38.8928664 
H    96.4568102   43.9673036   37.9042096 
H    97.8306686   42.8533138   37.9246238 
H   103.7972547   45.3104531   40.3648264 
H   102.3151601   45.1400493   39.3791718 
H   103.3074980   42.9723408   39.8116826 
H   104.7261205   52.2920683   39.6097588 
H   105.7378405   50.8420231   39.3700593 
H   103.6265026   50.2484590   40.5322626 
H   103.9954638   49.1510502   37.7109699 
H   101.8712658   48.0122134   37.9743069 
H   102.6793984   47.7115196   40.3570145 
H   100.5905780   50.0648356   39.3538614 
H   102.7842029   50.8240377   36.2929627 
H    96.4709208   50.1891221   35.3004469 
H    95.4500974   49.5983512   37.2606972 
H    96.3766692   49.4694242   38.7178962 
H   105.8590599   44.0005071   39.6643478 
H   104.8983821   41.4003136   39.0824405 
H   105.8297549   44.5760332   37.3386857 
H   106.8043463   42.0387297   37.7846561 
H   104.4294655   41.9928835   36.5809025 
H   104.6390493   45.8027400   35.9884189 
H   101.6653641   42.2235770   31.5576564 
H   101.2715749   40.2317257   32.4025019 
H   102.0383876   39.6856767   33.8503223 
H    99.3040577   40.9830279   30.7376820 
H    95.2451431   41.2015468   36.2533930 
H   101.2427496   45.7269464   36.5230522 
H    98.6353657   47.2594005   36.1098883 
H    99.7527043   47.4955198   37.4492041 
H    97.4271919   45.1219842   35.9127292 
H   100.7360897   44.7102164   34.3529441 
H    99.1994257   45.5798860   34.2587773 
H    95.8955103   43.3059077   35.6219582 
H    97.7066647   43.7942946   34.1329873 
H   100.7623629   42.4602038   35.6751675 
H    99.7148504   42.3571266   37.0958501 
H   100.9435395   43.6312836   36.9553705 
H   100.0824203   43.2725279   33.2869471 
H    99.8847664   41.6596132   33.9457211 
H    97.9120712   41.3106584   32.4452455 
H    97.0998694   43.4924951   32.0223892 
H    97.4995171   43.7387199   28.2541467 
H    98.6744076   45.3021877   31.8654678 
H    99.9373715   44.2666064   31.1860323 
H    98.4764284   40.2631080   34.5588087 
H    97.1009839   40.0426591   35.7976724 
H   101.9161349   46.8832118   34.4250742 
H   101.5665759   48.0472221   35.7187998 
H   100.3759792   47.7941507   34.4313081 
