122
Energy =
H   205.3573901   51.5388634  191.1283852 
C   205.1678196   51.4069537  192.2050044 
C   203.9135447   50.5912770  192.4293547 
O   202.7872529   51.2554732  191.8297178 
C   203.9117541   49.2004891  191.7912668 
O   204.5261443   48.2750682  192.6740353 
C   202.4067887   48.9066611  191.6307692 
O   201.8982413   48.3658665  192.8349236 
C   201.8139642   50.3142341  191.4248469 
N   201.4650164   50.5984143  190.0381532 
C   202.2855247   51.0714270  189.0273799 
N   201.6713433   51.1547476  187.8686776 
C   200.3880785   50.7065921  188.1174014 
C   199.2785859   50.4971957  187.2304558 
O   199.1715596   50.7080732  186.0250800 
N   198.1795310   49.9482707  187.9465890 
C   198.1406839   49.6446250  189.2854097 
N   196.9704718   49.1672279  189.7810800 
N   199.1660006   49.8362215  190.0950353 
C   200.2427553   50.3514198  189.4653717 
P   205.2395901   46.9004872  192.0233211 
O   205.7287466   46.1194057  193.2134169 
O   206.0912455   47.2835215  190.8401198 
O   203.9047450   46.1701110  191.3645789 
C   203.0727283   45.3459132  192.1664430 
C   203.2144102   43.9000232  191.7245650 
O   202.8816250   43.7788511  190.3264444 
C   204.6228470   43.3205885  191.8522602 
O   204.6128380   41.9061556  192.0587222 
C   205.2613973   43.6185597  190.4827823 
O   206.2733487   42.7015464  190.1549683 
C   204.0437885   43.5515446  189.5331346 
N   204.1176503   44.4652171  188.4133004 
C   204.6960708   45.7317044  188.3226685 
N   204.6019385   46.2399160  187.1166365 
C   203.9234980   45.2920897  186.3730576 
C   203.4434763   45.3309195  185.0199982 
O   203.5369792   46.2144693  184.1716003 
N   202.7536922   44.1267853  184.7065842 
C   202.5700304   43.0560118  185.5452151 
N   201.9745153   41.9484873  185.0221675 
N   202.9709386   43.0465771  186.8050780 
C   203.6154192   44.1801963  187.1617221 
O   199.0719782   41.3779120  184.4344161 
O   196.2932605   43.0566106  182.9799723 
O   195.2398699   41.3674939  190.1067275 
C   199.2859765   44.4496884  192.0168782 
C   197.2660678   45.8448390  191.6177086 
C   200.2261304   45.5333580  189.1830952 
C   199.2155109   46.1519185  190.1281112 
C   198.4153507   45.0884574  190.9217428 
C   197.8179924   44.0702688  189.9014192 
C   198.8270525   43.4224478  188.8996959 
C   199.5952006   44.5672314  188.1959061 
C   196.8993493   43.0212657  190.5364823 
C   196.1004755   42.2893273  189.4601206 
C   197.0486110   41.6604726  188.4588725 
C   197.9708311   42.6745240  187.8060859 
C   199.8166170   42.4229634  189.5230388 
C   198.8278071   42.0888914  186.6764469 
C   198.1832764   42.0971280  185.2938868 
C   197.9692468   43.5291462  184.7242212 
I   201.2015527   47.1357569  188.0274699 
C   197.4130610   43.3901722  183.3102421 
N   198.4690831   43.6188851  182.4348704 
C   199.6527950   43.9435827  183.0735443 
C   199.2971659   44.2633305  184.5081114 
O   200.7504441   43.9631020  182.5391756 
C   197.0491900   40.3372388  188.2430095 
H   200.2107709   44.0135490  191.6211401 
H   198.7383332   43.6546298  192.5462190 
H   199.5665027   45.2149578  192.7584013 
H   196.5498808   46.2409251  190.8789192 
H   197.6719177   46.6917168  192.1948855 
H   196.7139723   45.2022367  192.3200526 
H   196.1859277   43.4909912  191.2286719 
H   197.4723643   42.2764222  191.1116623 
H   203.3385265   45.4289681  193.2329914 
H   202.0337923   45.6772213  192.0290291 
H   202.5025290   43.2840530  192.2989349 
H   205.0822722   52.3973642  192.6760164 
H   206.0240995   50.8790048  192.6508739 
H   203.7260169   50.4623683  193.5112610 
H   204.4263282   49.2011278  190.8171776 
H   202.1874234   48.2494801  190.7748575 
H   202.6782853   47.9819930  193.2832357 
H   200.8852787   50.4047689  192.0087097 
H   203.3158582   51.3574340  189.2286427 
H   197.3567577   49.7658960  187.3742918 
H   196.2570535   48.8025780  189.1600982 
H   196.9951734   48.7955462  190.7243042 
H   205.1920253   43.7694743  192.6759855 
H   203.8856532   41.5205208  191.5403831 
H   205.6933693   44.6279972  190.4766068 
H   206.0444985   41.8968355  190.6634653 
H   203.9695113   42.5494713  189.0826423 
H   205.1510300   46.2247011  189.1856612 
H   202.3064232   44.1079865  183.7800205 
H   201.3769884   42.0303826  184.2045356 
H   201.6652659   41.2598787  185.7003966 
H   198.5621059   40.9736698  183.7147012 
H   194.6597670   40.9811935  189.4307999 
H   201.0815802   45.0804329  189.6997758 
H   198.4984410   46.7446367  189.5360560 
H   199.7040213   46.8485056  190.8274664 
H   197.1684984   44.6969622  189.2576692 
H   200.3847645   44.1591891  187.5497462 
H   198.8872376   45.1210324  187.5545751 
H   195.5013908   43.0487490  188.9154818 
H   197.3157206   43.4591406  187.3818935 
H   200.3113931   41.8460685  188.7272203 
H   199.3125993   41.7087653  190.1900230 
H   200.6223586   42.9206804  190.0749106 
H   199.7829612   42.6245807  186.6058993 
H   199.0974839   41.0458205  186.8905936 
H   197.2007420   41.5969037  185.3320583 
H   197.2500960   44.0743230  185.3492915 
H   198.4074221   43.4398677  181.4330052 
H   199.1722519   45.3553391  184.5844515 
H   200.1031836   43.9782640  185.1907169 
H   197.7220355   39.8512746  187.5338409 
H   196.3636399   39.6929055  188.7986772 
