122
	Energy:     432.6964386
H          5.36064        0.83647       12.24571
C          5.11066        0.81821       13.32731
C          3.61516        0.59340       13.52991
O          2.85899        1.64019       12.94901
C          3.11547       -0.71064       12.90627
O          3.41547       -1.84190       13.69980
C          1.64098       -0.40544       12.87502
O          1.12669       -0.41832       14.18524
C          1.71772        1.03883       12.35195
N          1.85016        1.05854       10.88706
C          2.90266        1.48793       10.14025
N          2.66774        1.35839        8.80581
C          1.42549        0.84242        8.74352
C          0.65562        0.51268        7.64236
O          1.07755        0.66306        6.50906
N         -0.61200        0.01344        7.86624
C         -1.08892       -0.14616        9.14949
N         -2.39589       -0.63977        9.36368
N         -0.30382        0.17955       10.22404
C          0.93818        0.66512        9.98809
P          4.57159       -2.88376       12.88710
O          5.49376       -3.80361       14.03655
O          5.61416       -2.00126       12.14807
O          3.81979       -3.89786       11.67228
C          3.36081       -5.10024       12.25041
C          3.96478       -6.34560       11.56305
O          3.70626       -6.30933       10.16290
C          5.48586       -6.49415       11.75864
O          5.84840       -7.84724       11.61708
C          5.96629       -5.72643       10.55669
O          7.31927       -5.93670       10.23313
C          4.96583       -6.23447        9.51331
N          4.88229       -5.39921        8.30788
C          5.50514       -4.22292        8.02034
N          5.17384       -3.75928        6.78425
C          4.32902       -4.69029        6.30379
C          3.68352       -4.75670        5.08156
O          3.82559       -3.88272        4.24428
N          2.87766       -5.84996        4.83507
C          2.72698       -6.84081        5.78118
N          1.91555       -7.96483        5.50655
N          3.36886       -6.74718        6.98844
C          4.15491       -5.66794        7.21573
O         -1.54985       -9.39091        4.18766
O         -4.94696       -9.19029        3.58856
O         -4.54190       -8.57563       10.13819
C         -0.54783       -5.12297       11.39008
C         -2.55289       -3.75376       10.92965
C          0.30939       -4.42716        8.38526
C         -0.68014       -3.68441        9.28884
C         -1.46216       -4.62301       10.24648
C         -2.13744       -5.76984        9.38325
C         -1.19293       -6.53327        8.34357
C         -0.44293       -5.44824        7.51144
C         -2.97434       -6.77248       10.22676
C         -3.83577       -7.66779        9.32939
C         -2.94989       -8.34740        8.30495
C         -2.13587       -7.40251        7.40534
C         -0.13983       -7.48916        8.98817
C         -1.41671       -8.09274        6.19710
C         -2.35337       -8.71895        5.12788
C         -3.24715       -7.68066        4.40126
Br         1.19952       -3.13743        7.23966
C         -4.13260       -8.30922        3.35911
N         -3.97565       -7.77570        2.14881
C         -3.04984       -6.81882        2.18845
C         -2.44330       -6.63949        3.54685
O         -2.72179       -6.17865        1.20191
C         -2.87024       -9.69627        8.24449
H          0.33816       -5.66108       11.05746
H         -1.10766       -5.77202       12.09483
H         -0.15930       -4.25886       11.97225
H         -3.26660       -3.34763       10.18111
H         -2.09105       -2.89229       11.46001
H         -3.12904       -4.31513       11.69110
H         -3.67437       -6.24660       10.90336
H         -2.30378       -7.39443       10.85544
H          3.53198       -5.18835       13.34701
H          2.26308       -5.12357       12.12692
H          3.46094       -7.22116       12.02921
H          5.40544        1.78955       13.77737
H          5.69015        0.01418       13.82691
H          3.40247        0.59760       14.62405
H          3.45144       -0.79017       11.84318
H          1.05362       -1.11679       12.25074
H          0.15292       -0.24126       14.10797
H          0.79882        1.60348       12.62170
H          3.82284        1.88289       10.54912
H         -1.21733       -0.23912        7.05240
H         -2.99741       -0.89134        8.56626
H         -2.75909       -0.74389       10.32175
H          5.88593       -6.11731       12.72665
H          5.57297       -8.30503       12.45391
H          5.81652       -4.64652       10.73419
H          7.41899       -6.86202        9.88961
H          5.24939       -7.26813        9.20790
H          6.18488       -3.70541        8.68269
H          2.38293       -5.92896        3.91756
H          1.43040       -8.05104        4.60183
H          1.81145       -8.71225        6.20739
H         -2.05802      -10.18370        3.87248
H         -5.35332       -8.84272        9.63183
H          1.10052       -4.91529        8.98725
H         -1.40285       -3.16719        8.61806
H         -0.14644       -2.90092        9.87151
H         -2.86885       -5.21535        8.74921
H          0.29030       -5.91285        6.82482
H         -1.18076       -4.88924        6.89302
H         -4.55948       -7.01251        8.78842
H         -2.85251       -6.69201        6.94703
H          0.44923       -8.00253        8.20492
H         -0.60979       -8.27323        9.61358
H          0.63365       -6.99971        9.58253
H         -0.79827       -7.35523        5.65765
H         -0.72908       -8.87819        6.56819
H         -3.02381       -9.45109        5.62670
H         -3.93188       -7.16726        5.10731
H         -4.50000       -8.05655        1.30644
H         -2.58232       -5.60668        3.93118
H         -1.36336       -6.88442        3.45959
H         -2.21861      -10.20913        7.55193
H         -3.44888      -10.32531        8.91116
