122
Energy =
H   204.8472076   51.5616001  191.0581598 
C   204.8062874   51.3232280  192.1304549 
C   203.6327988   50.4278775  192.4291414 
O   202.4210776   51.0489638  192.0242310 
C   203.6387779   49.0910802  191.6930990 
O   204.4613477   48.1938085  192.3776841 
C   202.1537367   48.7041188  191.6988750 
O   201.7936583   47.9982303  192.8508415 
C   201.4754785   50.0910725  191.6314360 
N   201.0045201   50.4429601  190.3088326 
C   201.7567357   50.8682496  189.2348489 
N   201.0466769   51.0412017  188.1527840 
C   199.7653683   50.7105821  188.5182745 
C   198.5547201   50.6641627  187.7537050 
O   198.3601507   50.9145327  186.5747048 
N   197.4791034   50.2496231  188.5680149 
C   197.5327310   49.9422832  189.9015183 
N   196.3757601   49.6091979  190.4996883 
N   198.6512083   49.9644981  190.5920033 
C   199.7180657   50.3340769  189.8618714 
P   205.1500156   46.9185509  191.5711856 
O   206.0509304   46.2727046  192.5814434 
O   205.5969747   47.3548468  190.2061242 
O   203.8327217   45.9675604  191.2972670 
C   203.3337109   45.1258391  192.3059926 
C   203.6826199   43.6775110  192.0245220 
O   203.1966423   43.2996421  190.7344830 
C   205.1704751   43.3456232  192.0121695 
O   205.4424074   42.0198506  192.4282067 
C   205.5495591   43.4926061  190.5354604 
O   206.6562604   42.7265145  190.1818610 
C   204.2521865   43.0588627  189.8346210 
N   204.0171522   43.7026681  188.5691614 
C   204.2020160   45.0307063  188.2087316 
N   203.8155678   45.2717279  186.9860540 
C   203.3457178   44.0710659  186.5083564 
C   202.6766993   43.7449957  185.2847199 
O   202.3669530   44.4674283  184.3450953 
N   202.3065424   42.3881257  185.2680408 
C   202.4757387   41.4905665  186.2857938 
N   201.9807215   40.2529147  186.0833075 
N   203.0760324   41.7930353  187.4159475 
C   203.4623734   43.0799550  187.4830957 
O   199.7273557   41.5848184  184.3230033 
O   197.0639705   41.8959578  182.7131618 
O   195.7113857   41.6784881  189.7210034 
C   199.4452690   45.0025223  191.7633306 
C   197.4086972   46.2946292  191.2353873 
C   200.4978638   46.0777593  188.9892846 
C   199.3972605   46.6501379  189.8481846 
C   198.6104486   45.5749884  190.6132959 
C   198.1130118   44.5230589  189.5834037 
C   199.1912974   43.9266495  188.6265002 
C   199.9558408   45.0940568  187.9729216 
C   197.2326934   43.4362577  190.1888478 
C   196.5266528   42.6391854  189.1028767 
C   197.5512099   42.0695522  188.1519568 
C   198.4200917   43.1288594  187.5119656 
C   200.1826658   42.9735269  189.2974068 
C   199.3491774   42.5852892  186.4334231 
C   198.7099102   42.1885564  185.1146153 
C   198.0870484   43.3703705  184.3738747 
Br  201.3740664   47.5623053  188.0382410 
C   197.5942151   42.9458508  183.0016837 
N   197.8736008   43.9672205  182.1293024 
C   198.6237090   44.9955584  182.6812859 
C   198.9741520   44.5807421  184.0889618 
O   198.9400153   45.9999210  182.0940098 
C   197.6801722   40.7494102  187.9823613 
H   200.3160126   44.4335533  191.4211732 
H   198.8434853   44.3335892  192.3979851 
H   199.8277622   45.8240007  192.3899497 
H   196.7486501   46.7160918  190.4608253 
H   197.7627141   47.1292705  191.8609216 
H   196.8127155   45.6284217  191.8764493 
H   196.4628980   43.8724640  190.8414097 
H   197.8203355   42.7375970  190.8059471 
H   203.7287925   45.4034842  193.2971313 
H   202.2394820   45.2383549  192.3322808 
H   203.1799561   43.0546164  192.7854784 
H   204.7451531   52.2623823  192.6992173 
H   205.7355823   50.8053460  192.4097541 
H   203.5973791   50.2134048  193.5164087 
H   203.9869559   49.2215794  190.6535360 
H   201.8809199   48.0991070  190.8236832 
H   202.4914827   48.1079736  193.5100324 
H   200.5895969   50.0863566  192.2871463 
H   202.8267683   51.0508714  189.3320330 
H   196.5863601   50.1968478  188.0851555 
H   195.4978586   49.5765937  190.0020493 
H   196.3959521   49.3511041  191.4762028 
H   205.7555900   44.0269498  192.6433414 
H   204.7387803   41.4365001  192.1139575 
H   205.7657694   44.5462078  190.3085467 
H   206.6637529   41.9916289  190.8181965 
H   204.3052507   41.9812255  189.6008800 
H   204.6133880   45.7719115  188.9021280 
H   201.6690276   42.1259925  184.5124897 
H   201.3118399   40.1037365  185.3370723 
H   201.9748955   39.6159942  186.8686824 
H   199.3052611   41.1096091  183.5952372 
H   195.1979856   41.2361378  189.0341332 
H   201.3109165   45.6412504  189.5869719 
H   198.7007558   47.1939755  189.1869063 
H   199.7921041   47.3887023  190.5602049 
H   197.4562660   45.1114692  188.9115570 
H   200.7916626   44.7273237  187.3609896 
H   199.2708690   45.6394320  187.2998411 
H   195.9042983   43.3530999  188.5219080 
H   197.7389266   43.8704951  187.0523011 
H   200.8134025   42.4860261  188.5412508 
H   199.6746861   42.1756570  189.8571916 
H   200.8821880   43.4749283  189.9728953 
H   200.1178042   43.3340436  186.2086108 
H   199.8834498   41.7041800  186.8118952 
H   197.9066914   41.4532224  185.2900103 
H   197.1838836   43.6860297  184.9250157 
H   197.5908009   43.9562042  181.1523828 
H   198.8414935   45.4258449  184.7775434 
H   200.0518803   44.3325307  184.0872437 
H   198.4277188   40.3098338  187.3182059 
H   197.0360276   40.0595052  188.5334407 
