122
Energy =
H   205.4896289   50.9738156  191.9767810 
C   205.0512225   50.7750674  192.9670093 
C   203.7651096   49.9911382  192.8267204 
O   202.8367543   50.7249998  192.0128776 
C   203.8917578   48.6477055  192.1076048 
O   204.3095974   47.6435101  193.0188440 
C   202.4553395   48.4007049  191.6067806 
O   201.6911357   47.7909593  192.6316682 
C   201.9339702   49.8342702  191.3785194 
N   201.8363751   50.2023960  189.9767248 
C   202.8645752   50.4380091  189.0756512 
N   202.4348920   50.6513120  187.8549950 
C   201.0613466   50.5349354  187.9386775 
C   200.0529015   50.5754871  186.9173468 
O   200.1410597   50.7798398  185.7109147 
N   198.7723373   50.3172535  187.4891685 
C   198.4973019   50.0707004  188.8106152 
N   197.1900530   49.9001097  189.1546703 
N   199.4295227   50.0376185  189.7418560 
C   200.6704873   50.2554663  189.2545760 
P   205.0860684   46.2959949  192.3829053 
O   205.3782209   45.4004990  193.5545984 
O   206.1055556   46.7480891  191.3665610 
O   203.8387572   45.6690882  191.4817633 
C   202.9777775   44.6807090  192.0204331 
C   203.1401270   43.4035581  191.2178448 
O   202.8299160   43.6418998  189.8320493 
C   204.5574188   42.8320523  191.2108408 
O   204.5641785   41.4149602  191.0180868 
C   205.2150398   43.5045107  189.9891484 
O   206.2367014   42.7145778  189.4345084 
C   204.0093900   43.7026612  189.0392453 
N   204.0695239   44.9185678  188.2534917 
C   204.6999896   46.1326958  188.5252953 
N   204.6033383   46.9827650  187.5311252 
C   203.8702003   46.3255402  186.5621362 
C   203.4263655   46.7617171  185.2688595 
O   203.6095193   47.8165838  184.6710832 
N   202.6552985   45.7330289  184.6505493 
C   202.3630765   44.4962750  185.1708939 
N   201.5545252   43.6928024  184.4256882 
N   202.7909481   44.1001673  186.3547056 
C   203.5183296   45.0437700  186.9973170 
O   200.2396633   41.1486182  185.1457187 
O   197.6386939   40.0301705  183.7345720 
O   195.4098712   41.4842711  190.0086833 
C   198.5845564   45.3865686  192.0141341 
C   196.6788271   46.4565070  190.8332318 
C   200.1819042   45.9341219  189.3258332 
C   198.9359528   46.6305307  189.8347161 
C   197.9978749   45.6872085  190.6226335 
C   197.7187630   44.4276657  189.7398051 
C   198.9740388   43.7017985  189.1537299 
C   199.8649826   44.7425974  188.4428585 
C   196.7402275   43.4269616  190.3672690 
C   196.2932932   42.3745492  189.3492237 
C   197.5055363   41.7059778  188.7333414 
C   198.4311922   42.6986458  188.0656426 
C   199.7893274   42.9188479  190.1937412 
C   199.5354653   42.0893841  187.1962498 
C   199.0739215   41.3127525  185.9647571 
C   197.9497764   42.0014205  185.1705829 
Cl  201.1577913   47.1261826  188.3335885 
C   197.7058268   41.2377224  183.8719553 
N   197.6013809   42.1640918  182.8531241 
C   197.8402044   43.4783551  183.2449804 
C   198.1908531   43.4492615  184.7199868 
O   197.7946532   44.4367130  182.5020903 
C   197.7348281   40.3921196  188.8696346 
H   199.5934207   44.9588575  191.9706762 
H   197.9452203   44.6881053  192.5761001 
H   198.6620679   46.3217485  192.5901069 
H   196.1875888   46.6720896  189.8699238 
H   196.8838814   47.4142907  191.3386232 
H   195.9712799   45.8981213  191.4648162 
H   195.8413823   43.9375971  190.7423141 
H   197.1969128   42.9030050  191.2216715 
H   203.2157484   44.4910290  193.0795804 
H   201.9409166   45.0449681  191.9433528 
H   202.4320940   42.6497262  191.5996356 
H   204.8745631   51.7336402  193.4772183 
H   205.7682123   50.1874884  193.5597879 
H   203.3168886   49.8010039  193.8201040 
H   204.5995585   48.7147802  191.2659195 
H   202.4185419   47.8104413  190.6797120 
H   202.3491799   47.3266742  193.1859267 
H   200.9165843   49.9209331  191.7895198 
H   203.9042968   50.4518374  189.3974715 
H   198.0071842   50.3313173  186.8170703 
H   196.5173643   49.6313270  188.4445440 
H   197.0263308   49.5282037  190.0844691 
H   205.1038443   43.0343375  192.1411437 
H   203.8465387   41.1875280  190.4021702 
H   205.6420573   44.4737021  190.2774734 
H   206.0053268   41.8008165  189.6978671 
H   203.9713732   42.8843680  188.3030963 
H   205.2041074   46.3228457  189.4761871 
H   202.2764494   45.9893687  183.7404933 
H   201.4884311   43.8516918  183.4260197 
H   201.3870692   42.7339187  184.7416995 
H   200.0921665   40.3943709  184.5519546 
H   195.0661896   40.8652195  189.3445243 
H   200.8643293   45.6547688  190.1362932 
H   198.3886687   47.0209053  188.9592679 
H   199.2109528   47.4959834  190.4557195 
H   197.2090590   44.8449204  188.8483186 
H   200.8078395   44.2869775  188.1143487 
H   199.3372373   45.1133082  187.5457373 
H   195.7582714   42.9052947  188.5332207 
H   197.8038452   43.3306261  187.4100441 
H   200.5843069   42.3489477  189.6941046 
H   199.1633091   42.2176295  190.7624641 
H   200.2865683   43.5869699  190.9039242 
H   200.1849638   42.8972542  186.8315587 
H   200.1866619   41.4263461  187.7858447 
H   198.6948533   40.3183402  186.2470468 
H   197.0190329   41.9199796  185.7572275 
H   197.4078298   41.9044905  181.8866527 
H   197.5939886   44.1993887  185.2562359 
H   199.2515230   43.7415881  184.8073511 
H   198.6235353   39.9084552  188.4586504 
H   197.0368024   39.7645979  189.4295009 
