122
Energy =
H     0.5156711   -3.4485786   -5.5975367 
C    -0.4443234   -3.1849205   -6.0678934 
C    -1.3105309   -2.4136085   -5.0972774 
O    -1.5210360   -3.1955625   -3.9089421 
C    -0.7022423   -1.1153411   -4.5661217 
O    -0.9451116   -0.0407682   -5.4626489 
C    -1.4627024   -0.9028777   -3.2439904 
O    -2.6534605   -0.1769369   -3.4903619 
C    -1.8178368   -2.3413354   -2.8162378 
N    -1.0773210   -2.8166372   -1.6567490 
C     0.2628615   -3.1759535   -1.5828873 
N     0.6361017   -3.5112348   -0.3709096 
C    -0.4924715   -3.3461478    0.4039530 
C    -0.6860657   -3.4973069    1.8146989 
O     0.0989392   -3.8473762    2.6958451 
N    -2.0179272   -3.1438706    2.1717786 
C    -3.0143868   -2.7373010    1.3148291 
N    -4.2062827   -2.3913276    1.8700950 
N    -2.8306314   -2.6142666    0.0144047 
C    -1.5713282   -2.9091217   -0.3789259 
P     0.1952822    1.1941346   -5.5149137 
O    -0.4557697    2.3221074   -6.2661558 
O     1.5393578    0.6000629   -5.8599110 
O     0.2917038    1.5474345   -3.8980476 
C    -0.4524651    2.6001137   -3.3086130 
C     0.5111764    3.6023685   -2.6989904 
O     1.3237683    2.9889818   -1.6804011 
C     1.5169724    4.1965787   -3.6834808 
O     1.9722859    5.4872007   -3.2732090 
C     2.7023331    3.2093075   -3.6298616 
O     3.9246072    3.8357277   -3.9314461 
C     2.6249940    2.6807190   -2.1761572 
N     2.9386722    1.2696587   -2.0458831 
C     2.8300693    0.2355085   -2.9721951 
N     3.1513935   -0.9325424   -2.4647894 
C     3.4688955   -0.6780934   -1.1424139 
C     3.8149338   -1.5760034   -0.0745089 
O     4.0167914   -2.7856621   -0.0937414 
N     3.9068351   -0.8624588    1.1528867 
C     3.7720653    0.4917766    1.3099155 
N     3.8668698    0.9736698    2.5868325 
N     3.5132294    1.3211732    0.3165792 
C     3.3370066    0.6848300   -0.8629862 
O     1.2920107    0.0917817    6.2155535 
O    -0.1838257   -3.1109390    6.1050165 
O    -5.1210090    2.5064659    5.0643731 
C    -3.0731392    3.2044849    0.0527578 
C    -4.5687793    1.2142056    0.0994095 
C    -0.7342444    1.0959252    0.3856582 
C    -2.1374596    0.8525563   -0.1344077 
C    -3.1945014    1.7514306    0.5468008 
C    -3.0518567    1.5729995    2.0911215 
C    -1.6234381    1.7986365    2.6805314 
C    -0.6429317    0.9174626    1.8888620 
C    -4.1212688    2.2980653    2.9133381 
C    -4.0958666    1.8216898    4.3656861 
C    -2.7083763    2.0122116    4.9488628 
C    -1.6475799    1.2632390    4.1627849 
C    -1.1474352    3.2617183    2.6810709 
C    -0.2588185    1.2164604    4.8279804 
C     0.0746902   -0.1128576    5.5028811 
C     0.2452350   -1.2895623    4.5095017 
Cl    0.4083839   -0.1328002   -0.3361603 
C     0.5407638   -2.5594841    5.2998123 
N     1.8429564   -2.9382254    5.0105799 
C     2.4466290   -2.1718042    4.0373201 
C     1.4468207   -1.1415543    3.5704535 
O     3.5967321   -2.3270019    3.6492304 
C    -2.5062913    2.8119999    6.0050453 
H    -2.0591325    3.6116558    0.1598560 
H    -3.7627293    3.8705224    0.5945050 
H    -3.3348139    3.2501584   -1.0168233 
H    -4.7521008    0.2130644    0.5204201 
H    -4.5952661    1.1296313   -0.9985903 
H    -5.3909441    1.8780987    0.4078909 
H    -5.1247357    2.1032486    2.5084217 
H    -3.9706830    3.3896038    2.9045721 
H    -1.0852065    3.0968017   -4.0618418 
H    -1.0921608    2.1800189   -2.5186687 
H    -0.0734871    4.4049406   -2.2194921 
H    -0.9445239   -4.1070350   -6.3989806 
H    -0.2441886   -2.5559763   -6.9482650 
H    -2.2866478   -2.1669570   -5.5558370 
H     0.3779124   -1.2363919   -4.3857969 
H    -0.8452348   -0.4067675   -2.4839959 
H    -2.4716737    0.3124207   -4.3191116 
H    -2.8822588   -2.3812576   -2.5372699 
H     0.9042645   -3.1616638   -2.4618256 
H    -2.2319862   -3.2596387    3.1611525 
H    -4.4520765   -2.7427887    2.7898578 
H    -4.9792949   -2.2796399    1.2214452 
H     1.1122797    4.3062831   -4.6982485 
H     2.0358480    5.4929572   -2.3022171 
H     2.5425387    2.3947253   -4.3474189 
H     3.7782701    4.7755102   -3.6991835 
H     3.3575383    3.2048609   -1.5439647 
H     2.4977760    0.4035351   -3.9992487 
H     4.0005492   -1.4486233    1.9970668 
H     4.4141401    0.4434928    3.2586463 
H     3.9549304    1.9827142    2.6609080 
H     1.3524691   -0.5709595    6.9214946 
H    -5.1614373    2.1391437    5.9622768 
H    -0.3147266    2.0536954    0.0521921 
H    -2.3996458   -0.1994327    0.0584572 
H    -2.1884099    0.9884829   -1.2250521 
H    -3.2352836    0.4903990    2.2403116 
H     0.3942448    1.1027023    2.1988113 
H    -0.8696441   -0.1399230    2.1051272 
H    -4.3039338    0.7308370    4.3612426 
H    -2.0185780    0.2242223    4.0695414 
H    -0.2769912    3.3726873    3.3464618 
H    -1.9256908    3.9499992    3.0394436 
H    -0.8317566    3.5924244    1.6829636 
H     0.5371382    1.4401507    4.1027552 
H    -0.1646704    1.9850049    5.6058931 
H    -0.7402907   -0.3831975    6.1987575 
H    -0.7013508   -1.4424948    3.9735982 
H     2.2917968   -3.7475661    5.4369210 
H     1.2006280   -1.3614962    2.5217757 
H     1.9222710   -0.1511959    3.6005324 
H    -1.5200342    2.9820940    6.4410489 
H    -3.3485544    3.3405187    6.4583203 
